_chemical_name_common                  'hrmc_f05-Ti3SiC2.xyz'
_cell_length_a                         29.50000
_cell_length_b                         29.80000
_cell_length_c                         38.00000
_cell_angle_alpha                      90
_cell_angle_beta                       90
_cell_angle_gamma                      90
_symmetry_space_group_name_H-M        'P 1'
_symmetry_space_group_name_Hall       'P 1' 
_symmetry_Int_Tables_number	        1

loop_
_symmetry_space_group_symop_operation_xyz
   'x, y, z'

loop_
   _atom_site_type_symbol
   _atom_site_fract_x
   _atom_site_fract_y
   _atom_site_fract_z
  C  0.083661      0.117718      0.921658   
  C  0.036576      0.099530      0.918474   
  C  0.031864      0.057550      0.902263   
  C  0.080169      0.041711      0.885026   
  C  0.106746      0.117349      0.858684   
  C  0.131729      0.115570      0.915158   
  C  0.113051      0.075000      0.876526   
  C  0.181627      0.255470      0.010579   
  C  0.154576      0.142047      0.890842   
  C  0.158305      0.205537      0.954684   
  C  0.318373      0.165839      0.911684   
  C  0.281356      0.259564      0.018921   
  C  0.462610      0.069396      0.938474   
  C  0.406373      0.949430      0.894368   
  C  0.478034      0.100034      0.891684   
  C  0.418814      0.215503      0.917026   
  C  0.443153      0.987651      0.911026   
  C  0.449966      0.201141      0.966500   
  C  0.432542      0.164664      0.939553   
  C  0.466644      0.130168      0.929632   
  C  0.535525      0.951879      0.912947   
  C  0.520915      0.069094      0.904842   
  C  0.577627      0.045302      0.905316   
  C  0.561220      0.993792      0.924421   
  C  0.430949      0.227550      0.027395   
  C  0.643356      0.117148      0.943789   
  C  0.709119      0.963960      0.884947   
  C  0.685932      0.024530      0.876289   
  C  0.728576      0.121879      0.943184   
  C  0.698034      0.085940      0.958000   
  C  0.672102      0.052248      0.931605   
  C  0.826339      0.088557      0.923579   
  C  0.772542      0.095470      0.919947   
  C  0.835763      0.052181      0.899737   
  C  0.920441      0.112450      0.924947   
  C  0.867322      0.022450      0.904816   
  C  0.932746      0.018054      0.898605   
  C  0.998373      0.118926      0.924737   
  C  0.958949      0.088993      0.917737   
  C  0.968373      0.051342      0.896711   
  C  0.948610      0.308926      0.937711   
  C  0.057186      0.062752      0.128105   
  C  0.085458      0.149564      0.877974   
  C  0.154712      0.329295      0.901158   
  C  0.159390      0.269564      0.941211   
  C  0.124847      0.187651      0.883289   
  C  0.154915      0.267584      0.886237   
  C  0.133797      0.228926      0.908368   
  C  0.321627      0.276711      0.968789   
  C  0.315729      0.284966      0.933316   
  C  0.265932      0.289262      0.913842   
  C  0.331763      0.203087      0.912184   
  C  0.353932      0.300940      0.991395   
  C  0.355254      0.279161      0.910053   
  C  0.365288      0.233523      0.909079   
  C  0.511322      0.260604      0.888342   
  C  0.472373      0.246275      0.943895   
  C  0.591898      0.270738      0.918790   
  C  0.549830      0.253859      0.927895   
  C  0.519593      0.261711      0.956368   
  C  0.679119      0.254396      0.922447   
  C  0.647322      0.279094      0.943105   
  C  0.645017      0.305705      0.008974   
  C  0.761424      0.256007      0.920553   
  C  0.716407      0.213792      0.934974   
  C  0.697153      0.170537      0.938026   
  C  0.840814      0.236342      0.939053   
  C  0.804610      0.269027      0.928210   
  C  0.776373      0.275973      0.021895   
  C  0.935085      0.262416      0.983105   
  C  0.849017      0.132315      0.930500   
  C  0.884068      0.254430      0.948684   
  C  0.900712      0.175369      0.953158   
  C  0.961661      0.386141      0.980816   
  C  0.971966      0.238591      0.962474   
  C  0.958000      0.191913      0.948447   
  C  0.985864      0.157248      0.940711   
  C  0.976780      0.275201      0.940447   
  C  0.129017      0.350570      0.925789   
  C  0.947492      0.428557      0.991605   
  C  0.838237      0.187919      0.948316   
  C  0.212068      0.260503      0.885053   
  C  0.150068      0.417416      0.939579   
  C  0.203220      0.308255      0.911947   
  C  0.230203      0.241913      0.926000   
  C  0.414576      0.402081      0.966342   
  C  0.291932      0.488826      0.928789   
  C  0.409763      0.280772      0.933895   
  C  0.419492      0.406074      0.899184   
  C  0.437390      0.305537      0.916132   
  C  0.475932      0.239161      0.902632   
  C  0.500915      0.403926      0.896868   
  C  0.462441      0.381107      0.901184   
  C  0.468339      0.331678      0.898263   
  C  0.507831      0.310973      0.887132   
  C  0.586644      0.412383      0.895605   
  C  0.544644      0.383993      0.895605   
  C  0.545763      0.338825      0.883579   
  C  0.591830      0.305839      0.895868   
  C  0.664746      0.410738      0.905500   
  C  0.626170      0.386275      0.901974   
  C  0.632441      0.338389      0.908500   
  C  0.649254      0.322752      0.941711   
  C  0.749119      0.410134      0.907921   
  C  0.703593      0.388523      0.913974   
  C  0.725864      0.287181      0.908605   
  C  0.836237      0.403758      0.906947   
  C  0.791525      0.387081      0.911842   
  C  0.735288      0.335403      0.908421   
  C  0.916610      0.402617      0.900289   
  C  0.876203      0.381342      0.910447   
  C  0.866475      0.333423      0.922737   
  C  0.980136      0.402752      0.937868   
  C  0.024441      0.434698      0.920184   
  C  0.951695      0.390436      0.915763   
  C  0.164678      0.295839      0.004605   
  C  0.073390      0.537819      0.889053   
  C  0.032305      0.517483      0.890605   
  C  0.075288      0.441141      0.929211   
  C  0.159661      0.542013      0.894289   
  C  0.116136      0.520403      0.900579   
  C  0.113898      0.479128      0.916158   
  C  0.157966      0.462081      0.927237   
  C  0.244203      0.547248      0.902132   
  C  0.203831      0.525302      0.913658   
  C  0.202068      0.482819      0.925842   
  C  0.288712      0.530168      0.910500   
  C  0.283932      0.619933      0.886842   
  C  0.333153      0.462349      0.924579   
  C  0.413932      0.546678      0.888158   
  C  0.366203      0.524497      0.889921   
  C  0.369525      0.475671      0.900842   
  C  0.416475      0.451879      0.902684   
  C  0.493458      0.554161      0.899868   
  C  0.456000      0.526275      0.900237   
  C  0.460339      0.477987      0.897105   
  C  0.500881      0.454497      0.900658   
  C  0.588915      0.550973      0.899474   
  C  0.538170      0.526611      0.902868   
  C  0.544712      0.481074      0.901026   
  C  0.586780      0.465034      0.899737   
  C  0.706542      0.526309      0.902789   
  C  0.640373      0.528624      0.896605   
  C  0.630881      0.486611      0.896684   
  C  0.749966      0.549262      0.899763   
  C  0.665864      0.456711      0.898158   
  C  0.709186      0.480000      0.901368   
  C  0.750203      0.452919      0.905316   
  C  0.825864      0.547584      0.884316   
  C  0.790068      0.524866      0.897105   
  C  0.793254      0.476510      0.899553   
  C  0.836339      0.449564      0.895895   
  C  0.910678      0.541242      0.873158   
  C  0.872441      0.516342      0.879658   
  C  0.875695      0.470034      0.888816   
  C  0.913458      0.450000      0.894132   
  C  0.992915      0.544396      0.879158   
  C  0.951119      0.522013      0.883211   
  C  0.955593      0.474832      0.889737   
  C  0.005797      0.472550      0.899184   
  C  0.047898      0.654362      0.866632   
  C  0.037288      0.607819      0.869763   
  C  0.074373      0.583591      0.877737   
  C  0.155729      0.672013      0.862211   
  C  0.116576      0.603826      0.874263   
  C  0.157695      0.585201      0.882947   
  C  0.241186      0.682081      0.870684   
  C  0.198780      0.653054      0.870158   
  C  0.199051      0.610940      0.879474   
  C  0.240339      0.593322      0.891921   
  C  0.289051      0.661376      0.877237   
  C  0.285831      0.709128      0.789947   
  C  0.325356      0.594497      0.887342   
  C  0.427559      0.668490      0.892342   
  C  0.371186      0.663356      0.884316   
  C  0.369729      0.616174      0.878816   
  C  0.489119      0.602584      0.896079   
  C  0.511627      0.699161      0.885842   
  C  0.408712      0.589698      0.888737   
  C  0.443729      0.621846      0.890816   
  C  0.591763      0.690369      0.881368   
  C  0.551085      0.669262      0.879316   
  C  0.543492      0.624698      0.890211   
  C  0.583661      0.602819      0.885184   
  C  0.675220      0.683289      0.869789   
  C  0.628102      0.664429      0.872211   
  C  0.614712      0.623658      0.862316   
  C  0.749831      0.683054      0.886474   
  C  0.713186      0.658423      0.872500   
  C  0.709966      0.616678      0.912816   
  C  0.749525      0.594597      0.898132   
  C  0.837932      0.691544      0.872579   
  C  0.791525      0.665403      0.876921   
  C  0.787559      0.617349      0.884395   
  C  0.828644      0.591678      0.877000   
  C  0.917695      0.682416      0.862763   
  C  0.873729      0.662617      0.867237   
  C  0.866881      0.615705      0.870026   
  C  0.911932      0.588993      0.861237   
  C  0.002712      0.686342      0.862421   
  C  0.957797      0.660201      0.861132   
  C  0.959593      0.613725      0.856026   
  C  0.996508      0.586980      0.870053   
  C  0.071593      0.823624      0.900105   
  C  0.152881      0.811711      0.886605   
  C  0.120169      0.780000      0.886053   
  C  0.109932      0.755403      0.861974   
  C  0.155797      0.721275      0.846974   
  C  0.233153      0.826913      0.877474   
  C  0.195661      0.799295      0.874395   
  C  0.199966      0.759060      0.856553   
  C  0.237627      0.730336      0.870184   
  C  0.318678      0.820638      0.881789   
  C  0.273729      0.803054      0.878763   
  C  0.275390      0.758188      0.875263   
  C  0.334373      0.692584      0.883553   
  C  0.399322      0.814060      0.885895   
  C  0.358339      0.787819      0.885263   
  C  0.324034      0.737852      0.881868   
  C  0.452678      0.760906      0.907368   
  C  0.490746      0.904597      0.811421   
  C  0.444339      0.800906      0.888816   
  C  0.472610      0.836611      0.895000   
  C  0.582712      0.835403      0.900947   
  C  0.517864      0.831913      0.909947   
  C  0.557627      0.758490      0.881342   
  C  0.589763      0.738456      0.880053   
  C  0.547017      0.851611      0.827000   
  C  0.629356      0.807718      0.909658   
  C  0.632068      0.763926      0.887737   
  C  0.678949      0.735168      0.889632   
  C  0.771492      0.877987      0.873763   
  C  0.778746      0.894430      0.825579   
  C  0.721424      0.658557      0.928184   
  C  0.850814      0.825872      0.877447   
  C  0.798508      0.828121      0.875816   
  C  0.850169      0.736980      0.865184   
  C  0.999356      0.780638      0.867237   
  C  0.907966      0.801477      0.871316   
  C  0.898170      0.757013      0.870684   
  C  0.995898      0.909396      0.804132   
  C  0.930475      0.728523      0.865921   
  C  0.983559      0.739262      0.862158   
  C  0.085322      0.993624      0.872763   
  C  0.047186      0.967349      0.877974   
  C  0.047492      0.926242      0.886605   
  C  0.111831      0.846644      0.913447   
  C  0.149390      0.912987      0.845211   
  C  0.114678      0.937718      0.874211   
  C  0.129627      0.894027      0.906684   
  C  0.176034      0.907315      0.888026   
  C  0.272746      0.895839      0.895868   
  C  0.318068      0.917282      0.925947   
  C  0.227661      0.875034      0.884553   
  C  0.323593      0.867550      0.885342   
  C  0.484305      0.948926      0.914789   
  C  0.368949      0.934094      0.914816   
  C  0.368712      0.873221      0.909053   
  C  0.369492      0.853523      0.953553   
  C  0.433458      0.872148      0.887316   
  C  0.441525      0.916779      0.890263   
  C  0.560475      0.930671      0.839895   
  C  0.534271      0.895872      0.826816   
  C  0.585390      0.877919      0.883105   
  C  0.705017      0.052181      0.902395   
  C  0.715356      0.964799      0.848500   
  C  0.538237      0.791745      0.928474   
  C  0.752068      0.054262      0.906921   
  C  0.742407      0.950973      0.902816   
  C  0.751729      0.907651      0.910026   
  C  0.849797      0.978591      0.913921   
  C  0.808441      0.960940      0.912790   
  C  0.810102      0.907718      0.914974   
  C  0.848136      0.876376      0.888737   
  C  0.933153      0.969765      0.906974   
  C  0.884475      0.895302      0.910211   
  C  0.932712      0.897148      0.890605   
  C  0.949966      0.941577      0.887316   
  C  0.960441      0.866208      0.868474   
  C  0.995898      0.907819      0.846237   
  C  0.492881      0.251879      0.016500   
  C  0.536000      0.258960      0.993684   
  C  0.765525      0.234966      0.058658   
  C  0.818169      0.314933      0.919474   
  C  0.930475      0.343758      0.998316   
  C  0.779627      0.035201      0.880263   
  C  0.094169      0.261946      0.102395   
  C  0.188305      0.193289      0.149632   
  C  0.330576      0.121544      0.113158   
  C  0.412847      0.120336      0.121500   
  C  0.414712      0.041812      0.159184   
  C  0.367661      0.100369      0.122447   
  C  0.499797      0.122081      0.122237   
  C  0.458305      0.099161      0.125184   
  C  0.370102      0.057852      0.143342   
  C  0.552136      0.978154      0.164395   
  C  0.584102      0.119027      0.124895   
  C  0.539254      0.099765      0.127737   
  C  0.517830      0.054128      0.159974   
  C  0.653390      0.064295      0.129605   
  C  0.692644      0.137349      0.105895   
  C  0.636136      0.105034      0.118132   
  C  0.770000      0.147047      0.125474   
  C  0.722576      0.101577      0.113316   
  C  0.699593      0.057987      0.120395   
  C  0.837356      0.135940      0.087289   
  C  0.798542      0.112081      0.104605   
  C  0.779695      0.077819      0.082711   
  C  0.831593      0.052617      0.060263   
  C  0.879525      0.113389      0.075316   
  C  0.874610      0.067483      0.070342   
  C  0.916644      0.042651      0.069211   
  C  0.002203      0.128926      0.092868   
  C  0.964475      0.109799      0.083737   
  C  0.957322      0.064631      0.081447   
  C  0.058814      0.236074      0.086632   
  C  0.044678      0.193993      0.098053   
  C  0.080712      0.174732      0.122079   
  C  0.206983      0.259094      0.115237   
  C  0.135525      0.240034      0.108053   
  C  0.245525      0.285503      0.123237   
  C  0.218847      0.203591      0.121000   
  C  0.269458      0.206040      0.125895   
  C  0.407288      0.251711      0.052842   
  C  0.294000      0.259866      0.123184   
  C  0.295729      0.185201      0.094447   
  C  0.330983      0.161544      0.099368   
  C  0.313390      0.230436      0.075763   
  C  0.378983      0.227584      0.073816   
  C  0.376102      0.183691      0.091263   
  C  0.420305      0.162315      0.103711   
  C  0.503593      0.263456      0.121526   
  C  0.456203      0.185738      0.113895   
  C  0.498508      0.166812      0.121579   
  C  0.591898      0.268725      0.124158   
  C  0.547220      0.244698      0.130605   
  C  0.540983      0.192114      0.129921   
  C  0.579051      0.164564      0.140658   
  C  0.671186      0.282013      0.131974   
  C  0.631559      0.257584      0.139342   
  C  0.712407      0.171779      0.092684   
  C  0.777830      0.255436      0.092342   
  C  0.803831      0.206678      0.115868   
  C  0.744136      0.187718      0.115342   
  C  0.846407      0.284463      0.079684   
  C  0.802136      0.289564      0.098026   
  C  0.839051      0.182383      0.093053   
  C  0.927593      0.275738      0.088342   
  C  0.888271      0.254094      0.091974   
  C  0.886746      0.204564      0.085632   
  C  0.922508      0.179866      0.083974   
  C  0.009797      0.279732      0.090263   
  C  0.966949      0.254094      0.091684   
  C  0.962644      0.206879      0.087316   
  C  0.001322      0.178557      0.096026   
  C  0.023763      0.408691      0.158184   
  C  0.076814      0.298188      0.124079   
  C  0.166102      0.268893      0.129632   
  C  0.842542      0.324765      0.025658   
  C  0.332847      0.350503      0.074000   
  C  0.312847      0.366577      0.099842   
  C  0.233864      0.385872      0.210711   
  C  0.125186      0.180168      0.118053   
  C  0.359797      0.391846      0.124237   
  C  0.260814      0.336342      0.152316   
  C  0.302237      0.328792      0.131184   
  C  0.422780      0.398591      0.091053   
  C  0.386407      0.377785      0.098605   
  C  0.361356      0.310403      0.138842   
  C  0.502475      0.397282      0.090316   
  C  0.463627      0.377148      0.091237   
  C  0.460983      0.334966      0.097684   
  C  0.503288      0.312081      0.109684   
  C  0.582169      0.407248      0.092526   
  C  0.545627      0.376141      0.091605   
  C  0.546339      0.331141      0.103263   
  C  0.587525      0.313154      0.112763   
  C  0.662949      0.408154      0.092947   
  C  0.619898      0.384329      0.097158   
  C  0.620780      0.340403      0.102605   
  C  0.662847      0.322852      0.118237   
  C  0.746712      0.416577      0.095053   
  C  0.701424      0.389966      0.093605   
  C  0.701864      0.349497      0.112816   
  C  0.829559      0.416409      0.099184   
  C  0.786576      0.390570      0.098553   
  C  0.780983      0.347718      0.114053   
  C  0.742407      0.337819      0.131763   
  C  0.913763      0.423356      0.106895   
  C  0.873458      0.391141      0.100816   
  C  0.882949      0.343087      0.100447   
  C  0.929763      0.324765      0.099842   
  C  0.003559      0.338658      0.131053   
  C  0.027661      0.305872      0.118868   
  C  0.067898      0.567114      0.096737   
  C  0.029288      0.547248      0.108053   
  C  0.073729      0.483725      0.131447   
  C  0.153966      0.559195      0.101816   
  C  0.109695      0.540839      0.103711   
  C  0.108475      0.498020      0.115000   
  C  0.144610      0.474128      0.112526   
  C  0.236814      0.548691      0.090105   
  C  0.192949      0.528758      0.098447   
  C  0.185017      0.485101      0.097842   
  C  0.229525      0.447752      0.119316   
  C  0.312373      0.457852      0.111605   
  C  0.355017      0.435235      0.123342   
  C  0.421763      0.539564      0.046632   
  C  0.285898      0.530369      0.074658   
  C  0.373458      0.472450      0.085368   
  C  0.418305      0.441007      0.078474   
  C  0.497797      0.537685      0.065211   
  C  0.459288      0.511913      0.067947   
  C  0.462237      0.465805      0.073263   
  C  0.506339      0.448188      0.082026   
  C  0.567831      0.558993      0.072316   
  C  0.541390      0.519564      0.074526   
  C  0.545051      0.474765      0.079500   
  C  0.585458      0.452987      0.082289   
  C  0.699322      0.528087      0.064474   
  C  0.640678      0.525034      0.074237   
  C  0.629525      0.480805      0.084684   
  C  0.745424      0.561510      0.053605   
  C  0.669593      0.455302      0.083842   
  C  0.709492      0.483020      0.078263   
  C  0.750237      0.458020      0.078605   
  C  0.830339      0.552416      0.070395   
  C  0.790814      0.530638      0.069579   
  C  0.793695      0.482081      0.079895   
  C  0.833593      0.460604      0.089211   
  C  0.905254      0.559698      0.089132   
  C  0.873051      0.531846      0.082079   
  C  0.873322      0.488826      0.093368   
  C  0.912170      0.470671      0.106842   
  C  0.986034      0.569128      0.101237   
  C  0.949254      0.541175      0.102079   
  C  0.950915      0.495101      0.111737   
  C  0.224102      0.618758      0.014789   
  C  0.109458      0.639195      0.093737   
  C  0.064644      0.613221      0.083737   
  C  0.015356      0.642919      0.082737   
  C  0.158983      0.606812      0.103316   
  C  0.264203      0.677215      0.060421   
  C  0.238949      0.580000      0.002316   
  C  0.237322      0.589933      0.079605   
  C  0.171458      0.637919      0.180184   
  C  0.322034      0.684362      0.057789   
  C  0.344847      0.579161      0.045237   
  C  0.274610      0.557886      0.015579   
  C  0.406610      0.684396      0.060158   
  C  0.364373      0.657181      0.057316   
  C  0.376136      0.608591      0.051684   
  C  0.421695      0.584866      0.052263   
  C  0.497695      0.676074      0.052263   
  C  0.456136      0.658859      0.052684   
  C  0.459186      0.611812      0.057342   
  C  0.578407      0.670839      0.043342   
  C  0.534237      0.651107      0.039658   
  C  0.488542      0.589497      0.975000   
  C  0.506983      0.582852      0.059632   
  C  0.664203      0.678893      0.040158   
  C  0.615322      0.646208      0.061737   
  C  0.611898      0.565403      0.069289   
  C  0.746237      0.684698      0.050421   
  C  0.708339      0.659866      0.034263   
  C  0.709153      0.608255      0.018632   
  C  0.671831      0.587114      0.999605   
  C  0.830814      0.688188      0.064895   
  C  0.787254      0.660973      0.054316   
  C  0.788237      0.615436      0.051289   
  C  0.912780      0.698893      0.069447   
  C  0.873729      0.669698      0.069342   
  C  0.864678      0.621812      0.066237   
  C  0.904576      0.600537      0.074763   
  C  0.957322      0.674933      0.073026   
  C  0.942610      0.627919      0.081447   
  C  0.982508      0.605168      0.083316   
  C  0.019797      0.863188      0.055132   
  C  0.036339      0.939530      0.055921   
  C  0.155119      0.827181      0.058605   
  C  0.152000      0.847483      0.026500   
  C  0.230847      0.630604      0.052947   
  C  0.237356      0.831141      0.076263   
  C  0.199932      0.806711      0.068211   
  C  0.202203      0.758893      0.065895   
  C  0.248712      0.733456      0.071868   
  C  0.325831      0.829866      0.076184   
  C  0.281424      0.809899      0.076105   
  C  0.287322      0.763658      0.064526   
  C  0.326712      0.733725      0.061368   
  C  0.403254      0.825604      0.073158   
  C  0.363119      0.805369      0.071579   
  C  0.362305      0.755906      0.062105   
  C  0.401593      0.735134      0.053684   
  C  0.490881      0.824732      0.046737   
  C  0.475661      0.737148      0.009921   
  C  0.502644      0.724262      0.055447   
  C  0.573153      0.813859      0.023684   
  C  0.534034      0.793389      0.038105   
  C  0.537017      0.742886      0.044105   
  C  0.577390      0.715705      0.045026   
  C  0.642271      0.847483      0.004237   
  C  0.610780      0.785201      0.020553   
  C  0.619797      0.743725      0.036711   
  C  0.664712      0.716846      0.058763   
  C  0.583322      0.019430      0.153868   
  C  0.736576      0.727383      0.063158   
  C  0.690847      0.762550      0.033895   
  C  0.819627      0.829060      0.061184   
  C  0.776136      0.806846      0.065658   
  C  0.824508      0.735168      0.068895   
  C  0.898170      0.821242      0.062763   
  C  0.856780      0.803691      0.060737   
  C  0.859966      0.760940      0.078211   
  C  0.945898      0.795201      0.065158   
  C  0.909729      0.746477      0.071579   
  C  0.074237      0.895638      0.062342   
  C  0.242339      0.877785      0.089474   
  C  0.131932      0.730671      0.021632   
  C  0.117424      0.895570      0.046105   
  C  0.209797      0.916779      0.080263   
  C  0.364136      0.000503      0.133237   
  C  0.298712      0.972383      0.089263   
  C  0.261153      0.947752      0.092316   
  C  0.338644      0.965604      0.100868   
  C  0.285661      0.888725      0.095368   
  C  0.328102      0.872785      0.079816   
  C  0.426271      0.931040      0.117158   
  C  0.374339      0.939161      0.083553   
  C  0.367966      0.898188      0.069158   
  C  0.404203      0.881510      0.046921   
  C  0.443051      0.891544      0.040342   
  C  0.479153      0.868658      0.040658   
  C  0.452305      0.899362      0.102816   
  C  0.472915      0.862953      0.092263   
  C  0.598746      0.861477      0.993921   
  C  0.814847      0.008490      0.053263   
  C  0.447559      0.821409      0.084947   
  C  0.773085      0.032215      0.090553   
  C  0.999186      0.042517      0.085395   
  C  0.744441      0.777987      0.031289   
  C  0.883797      0.962617      0.070500   
  C  0.793627      0.996913      0.104526   
  C  0.840881      0.977282      0.072605   
  C  0.857051      0.873221      0.085342   
  C  0.919017      0.992114      0.071237   
  C  0.889593      0.904597      0.070342   
  C  0.933627      0.892148      0.061395   
  C  0.961322      0.976678      0.063211   
  C  0.957729      0.927349      0.054263   
  C  0.005831      0.909329      0.046000   
  C  0.074373      0.186141      0.170447   
  C  0.958949      0.151711      0.211526   
  C  0.972237      0.195403      0.188737   
  C  0.159559      0.119765      0.216553   
  C  0.124373      0.149966      0.184921   
  C  0.264542      0.168389      0.220632   
  C  0.215390      0.127282      0.225342   
  C  0.097254      0.085067      0.180737   
  C  0.340508      0.174195      0.209263   
  C  0.308034      0.157584      0.230684   
  C  0.376949      0.088221      0.255421   
  C  0.431254      0.190705      0.196526   
  C  0.383492      0.156007      0.209553   
  C  0.387627      0.107248      0.214921   
  C  0.417458      0.079262      0.198526   
  C  0.467356      0.186141      0.213132   
  C  0.497119      0.075705      0.213895   
  C  0.440305      0.059295      0.229184   
  C  0.517797      0.042550      0.195474   
  C  0.540271      0.210268      0.196711   
  C  0.507220      0.168624      0.194605   
  C  0.539017      0.119866      0.218947   
  C  0.639695      0.137483      0.210868   
  C  0.630644      0.024430      0.137921   
  C  0.694475      0.112315      0.215579   
  C  0.794034      0.123658      0.203526   
  C  0.649661      0.178993      0.220789   
  C  0.730610      0.140973      0.216342   
  C  0.757288      0.150839      0.245132   
  C  0.851492      0.218356      0.155316   
  C  0.807966      0.190067      0.168211   
  C  0.822271      0.151275      0.187553   
  C  0.885729      0.151577      0.180474   
  C  0.933797      0.217148      0.176763   
  C  0.889695      0.193456      0.164447   
  C  0.912610      0.139060      0.211237   
  C  0.102780      0.302718      0.166053   
  C  0.055559      0.300570      0.201684   
  C  0.049085      0.260470      0.184816   
  C  0.089322      0.234597      0.180842   
  C  0.126203      0.296242      0.213395   
  C  0.121831      0.238591      0.204316   
  C  0.151220      0.208389      0.206816   
  C  0.249288      0.311611      0.185553   
  C  0.218136      0.264027      0.170079   
  C  0.217695      0.225201      0.189000   
  C  0.257661      0.219463      0.211158   
  C  0.328034      0.345738      0.212658   
  C  0.289966      0.294228      0.200763   
  C  0.290915      0.247651      0.201289   
  C  0.337051      0.225067      0.202500   
  C  0.355085      0.347752      0.262289   
  C  0.337763      0.275470      0.157184   
  C  0.363898      0.237584      0.176132   
  C  0.413695      0.239530      0.182000   
  C  0.425627      0.300268      0.078579   
  C  0.403593      0.298087      0.124974   
  C  0.432610      0.264664      0.153237   
  C  0.464475      0.242685      0.138368   
  C  0.684847      0.351946      0.189526   
  C  0.626610      0.543255      0.388289   
  C  0.589593      0.199228      0.181263   
  C  0.613559      0.312550      0.276947   
  C  0.700000      0.309396      0.174553   
  C  0.632373      0.227081      0.166921   
  C  0.678610      0.207047      0.201053   
  C  0.727458      0.263322      0.225842   
  C  0.688170      0.248154      0.215447   
  C  0.743254      0.307282      0.156684   
  C  0.789220      0.245101      0.190000   
  C  0.836746      0.433624      0.267395   
  C  0.835356      0.262081      0.192711   
  C  0.860136      0.252215      0.222500   
  C  0.906847      0.248490      0.214789   
  C  0.058542      0.351376      0.182289   
  C  0.921864      0.290604      0.295816   
  C  0.028814      0.503523      0.126079   
  C  0.273085      0.450638      0.138026   
  C  0.074237      0.364228      0.298053   
  C  0.106271      0.413825      0.301079   
  C  0.023119      0.364698      0.160211   
  C  0.161458      0.311812      0.236184   
  C  0.192373      0.327181      0.213026   
  C  0.377966      0.342852      0.213842   
  C  0.396610      0.377383      0.277263   
  C  0.172102      0.307013      0.171658   
  C  0.193322      0.374698      0.214289   
  C  0.321288      0.505671      0.093263   
  C  0.087119      0.183221      0.262000   
  C  0.955729      0.161678      0.267868   
  C  0.048068      0.172685      0.220237   
  C  0.016881      0.208389      0.197158   
  C  0.164508      0.182349      0.259526   
  C  0.124407      0.158523      0.254579   
  C  0.746102      0.359497      0.186632   
  C  0.254034      0.177886      0.275632   
  C  0.209119      0.154463      0.259184   
  C  0.088475      0.117718      0.223579   
  C  0.337356      0.184295      0.284263   
  C  0.298814      0.156174      0.280474   
  C  0.442000      0.087953      0.277711   
  C  0.416000      0.186007      0.298158   
  C  0.379254      0.164329      0.287553   
  C  0.383288      0.117148      0.285921   
  C  0.408373      0.038826      0.266737   
  C  0.498068      0.201040      0.299474   
  C  0.458373      0.170000      0.294026   
  C  0.472102      0.125403      0.292684   
  C  0.537729      0.232584      0.240895   
  C  0.499424      0.150000      0.245500   
  C  0.464983      0.061443      0.146974   
  C  0.623797      0.208054      0.240947   
  C  0.566814      0.177450      0.241816   
  C  0.599966      0.160101      0.275421   
  C  0.599932      0.114732      0.244395   
  C  0.536000      0.165436      0.289921   
  C  0.653864      0.084128      0.243474   
  C  0.523559      0.122450      0.289711   
  C  0.839254      0.207785      0.246605   
  C  0.790068      0.186745      0.238079   
  C  0.809797      0.109866      0.237000   
  C  0.887119      0.113758      0.252842   
  C  0.897559      0.252617      0.278132   
  C  0.902339      0.161913      0.265263   
  C  0.851119      0.102383      0.248868   
  C  0.978475      0.198624      0.265658   
  C  0.879763      0.427651      0.260737   
  C  0.079864      0.317517      0.295737   
  C  0.041390      0.292550      0.295263   
  C  0.044915      0.246074      0.284868   
  C  0.087797      0.224228      0.275368   
  C  0.165695      0.317483      0.288421   
  C  0.124034      0.294094      0.292237   
  C  0.124407      0.246879      0.286658   
  C  0.165932      0.226376      0.282368   
  C  0.245085      0.322651      0.290500   
  C  0.205797      0.297752      0.291579   
  C  0.207695      0.250705      0.285711   
  C  0.249322      0.225000      0.292447   
  C  0.430780      0.357483      0.298474   
  C  0.292373      0.293993      0.292868   
  C  0.286576      0.248289      0.294789   
  C  0.334237      0.225470      0.297632   
  C  0.196915      0.428423      0.131553   
  C  0.371797      0.256275      0.292947   
  C  0.420915      0.233960      0.298447   
  C  0.457186      0.328188      0.290763   
  C  0.343322      0.305638      0.289605   
  C  0.469898      0.249463      0.296053   
  C  0.485559      0.296711      0.294842   
  C  0.544203      0.373658      0.333868   
  C  0.573119      0.329799      0.291079   
  C  0.531458      0.306812      0.279447   
  C  0.558847      0.268154      0.251658   
  C  0.661458      0.329765      0.283342   
  C  0.605356      0.280973      0.254605   
  C  0.637153      0.254430      0.246421   
  C  0.732847      0.304362      0.242868   
  C  0.708068      0.332450      0.260763   
  C  0.650136      0.047315      0.234737   
  C  0.765153      0.241309      0.214500   
  C  0.770034      0.376980      0.259447   
  C  0.807424      0.396409      0.275868   
  C  0.864949      0.193691      0.274605   
  C  0.923559      0.231040      0.250289   
  C  0.997424      0.311980      0.295395   
  C  0.915390      0.334161      0.289658   
  C  0.001695      0.226309      0.287763   
  C  0.075119      0.449866      0.310053   
  C  0.032712      0.432819      0.302947   
  C  0.032136      0.385940      0.290868   
  C  0.146814      0.421577      0.307895   
  C  0.178508      0.443289      0.329263   
  C  0.260407      0.450570      0.337237   
  C  0.223458      0.433960      0.315816   
  C  0.226305      0.399362      0.294763   
  C  0.255322      0.368792      0.292553   
  C  0.347797      0.445805      0.349368   
  C  0.325051      0.409430      0.301500   
  C  0.296000      0.375101      0.280868   
  C  0.422847      0.443154      0.360921   
  C  0.386034      0.422852      0.342368   
  C  0.308983      0.435168      0.329711   
  C  0.365593      0.405503      0.293816   
  C  0.507661      0.434799      0.365053   
  C  0.462610      0.419161      0.352763   
  C  0.462475      0.390705      0.325079   
  C  0.502169      0.368591      0.323105   
  C  0.510881      0.468758      0.389868   
  C  0.547525      0.409597      0.356763   
  C  0.590542      0.426174      0.368763   
  C  0.581797      0.355671      0.319816   
  C  0.627017      0.408893      0.353184   
  C  0.626000      0.367181      0.332132   
  C  0.666983      0.356946      0.312289   
  C  0.740780      0.446208      0.334868   
  C  0.701864      0.426074      0.334342   
  C  0.703932      0.385134      0.311684   
  C  0.733559      0.368993      0.281947   
  C  0.818678      0.448523      0.314132   
  C  0.777729      0.427282      0.315632   
  C  0.764678      0.358054      0.223474   
  C  0.920780      0.409933      0.294816   
  C  0.943729      0.365671      0.284447   
  C  0.963085      0.279430      0.300395   
  C  0.995390      0.457785      0.311000   
  C  0.946780      0.450201      0.312737   
  C  0.986780      0.359597      0.295421   
  C  0.086949      0.576779      0.371684   
  C  0.043254      0.558658      0.360132   
  C  0.045424      0.517114      0.338974   
  C  0.082712      0.497718      0.331947   
  C  0.171966      0.558792      0.386368   
  C  0.129288      0.547718      0.366763   
  C  0.127797      0.510268      0.348500   
  C  0.171661      0.485738      0.346763   
  C  0.252983      0.552752      0.404763   
  C  0.211932      0.535973      0.388763   
  C  0.214983      0.502819      0.363079   
  C  0.257525      0.484899      0.362711   
  C  0.341627      0.548960      0.413605   
  C  0.296373      0.527584      0.404079   
  C  0.297729      0.494262      0.383132   
  C  0.344407      0.479497      0.378342   
  C  0.427119      0.557919      0.412921   
  C  0.381966      0.523456      0.421579   
  C  0.377864      0.485067      0.397737   
  C  0.421017      0.465772      0.386526   
  C  0.504949      0.563020      0.408895   
  C  0.465966      0.539497      0.405763   
  C  0.471051      0.493523      0.401579   
  C  0.588136      0.566879      0.400579   
  C  0.548373      0.541376      0.401447   
  C  0.548983      0.492215      0.392474   
  C  0.667356      0.435906      0.356053   
  C  0.668915      0.565336      0.391526   
  C  0.588271      0.473221      0.381342   
  C  0.632203      0.495470      0.382053   
  C  0.666441      0.482215      0.367868   
  C  0.758847      0.568658      0.384895   
  C  0.707797      0.541711      0.380579   
  C  0.706881      0.503389      0.366553   
  C  0.748237      0.485503      0.348947   
  C  0.843424      0.560235      0.375053   
  C  0.799491      0.547919      0.367000   
  C  0.793830      0.504463      0.351158   
  C  0.826610      0.487550      0.328553   
  C  0.924576      0.554631      0.376763   
  C  0.882610      0.543423      0.358921   
  C  0.881051      0.502450      0.339632   
  C  0.929288      0.489329      0.327447   
  C  0.871695      0.427450      0.193763   
  C  0.961729      0.556208      0.356816   
  C  0.965593      0.518121      0.335974   
  C  0.182203      0.468792      0.510579   
  C  0.254305      0.595000      0.413553   
  C  0.126034      0.627081      0.403079   
  C  0.087356      0.612047      0.391711   
  C  0.170712      0.603389      0.401526   
  C  0.215051      0.669429      0.419421   
  C  0.215525      0.622349      0.414711   
  C  0.331288      0.690738      0.419763   
  C  0.289492      0.662987      0.421105   
  C  0.291559      0.616544      0.416842   
  C  0.339661      0.595738      0.419474   
  C  0.405119      0.696879      0.417132   
  C  0.369356      0.668725      0.425526   
  C  0.376203      0.624765      0.423026   
  C  0.424441      0.603624      0.421895   
  C  0.510000      0.690604      0.413947   
  C  0.460475      0.676879      0.423579   
  C  0.462339      0.626946      0.425737   
  C  0.499186      0.610101      0.413947   
  C  0.643390      0.738624      0.417789   
  C  0.536000      0.637181      0.417105   
  C  0.586034      0.613658      0.413605   
  C  0.660407      0.683624      0.424289   
  C  0.630441      0.631879      0.419000   
  C  0.669661      0.608255      0.414395   
  C  0.886000      0.680705      0.464737   
  C  0.569390      0.816476      0.354342   
  C  0.708136      0.640738      0.446842   
  C  0.759254      0.609765      0.389895   
  C  0.827322      0.661611      0.465263   
  C  0.787390      0.653792      0.436553   
  C  0.728949      0.678154      0.426632   
  C  0.897559      0.651443      0.438132   
  C  0.870034      0.617450      0.433526   
  C  0.839797      0.609262      0.403921   
  C  0.910339      0.592550      0.397263   
  C  0.968847      0.665369      0.435342   
  C  0.929830      0.627685      0.391842   
  C  0.004373      0.575503      0.366000   
  C  0.048983      0.638758      0.396342   
  C  0.050475      0.669463      0.414474   
  C  0.149864      0.163691      0.142632   
  C  0.160814      0.893154      0.067474   
  C  0.252508      0.683993      0.425868   
  C  0.345322      0.743893      0.407658   
  C  0.475424      0.748591      0.353500   
  C  0.225695      0.707617      0.534237   
  C  0.323729      0.777349      0.407421   
  C  0.991763      0.126007      0.233316   
  C  0.429661      0.767718      0.615000   
  C  0.673492      0.721443      0.375921   
  C  0.307153      0.386040      0.230474   
  C  0.398237      0.742651      0.412395   
  C  0.484136      0.793356      0.372079   
  C  0.460000      0.737685      0.398895   
  C  0.519017      0.729966      0.422184   
  C  0.516237      0.743691      0.325526   
  C  0.538508      0.795235      0.384553   
  C  0.558881      0.750973      0.417237   
  C  0.599356      0.726711      0.407684   
  C  0.520169      0.800000      0.331474   
  C  0.570000      0.753087      0.346000   
  C  0.597492      0.716107      0.357237   
  C  0.639051      0.714362      0.352658   
  C  0.082780      0.216376      0.656658   
  C  0.039763      0.208926      0.658053   
  C  0.100136      0.263322      0.655632   
  C  0.116576      0.158758      0.756868   
  C  0.171492      0.226342      0.663790   
  C  0.135356      0.194799      0.667816   
  C  0.168814      0.102248      0.690974   
  C  0.172373      0.145906      0.676184   
  C  0.256407      0.231644      0.659895   
  C  0.216780      0.209329      0.665579   
  C  0.217695      0.166208      0.670105   
  C  0.255627      0.140201      0.667632   
  C  0.337966      0.238322      0.670053   
  C  0.299186      0.215403      0.666842   
  C  0.296136      0.162148      0.673342   
  C  0.339627      0.139564      0.677132   
  C  0.422983      0.236376      0.676000   
  C  0.380203      0.215369      0.677684   
  C  0.374305      0.174262      0.691079   
  C  0.417966      0.132919      0.686237   
  C  0.464644      0.211913      0.674237   
  C  0.459525      0.169698      0.661526   
  C  0.621458      0.301074      0.661079   
  C  0.665830      0.225403      0.686500   
  C  0.583492      0.286275      0.664974   
  C  0.421153      0.154094      0.635237   
  C  0.665220      0.269463      0.670816   
  C  0.743763      0.163658      0.708290   
  C  0.509763      0.256745      0.674079   
  C  0.747017      0.230436      0.676000   
  C  0.707254      0.206174      0.687132   
  C  0.728610      0.126946      0.736290   
  C  0.829458      0.228825      0.666263   
  C  0.787627      0.210168      0.677658   
  C  0.790441      0.170268      0.696342   
  C  0.823458      0.139060      0.695737   
  C  0.911288      0.217550      0.652526   
  C  0.867322      0.199295      0.662053   
  C  0.861966      0.151107      0.673842   
  C  0.910814      0.105638      0.672895   
  C  0.997661      0.220403      0.649316   
  C  0.955390      0.189732      0.656395   
  C  0.935559      0.145940      0.683658   
  C  0.038271      0.374899      0.647026   
  C  0.066441      0.301846      0.651684   
  C  0.019559      0.303322      0.645158   
  C  0.149356      0.336208      0.649053   
  C  0.091593      0.342651      0.642368   
  C  0.160169      0.270336      0.659684   
  C  0.256644      0.367886      0.626395   
  C  0.210678      0.339262      0.633000   
  C  0.211119      0.297819      0.643395   
  C  0.252576      0.275705      0.656000   
  C  0.345288      0.366141      0.622447   
  C  0.298136      0.348658      0.636632   
  C  0.297254      0.299799      0.650974   
  C  0.341356      0.282315      0.660816   
  C  0.471186      0.386644      0.602553   
  C  0.383051      0.306040      0.655711   
  C  0.425085      0.282148      0.661605   
  C  0.479254      0.333389      0.642711   
  C  0.434508      0.351074      0.626684   
  C  0.472102      0.295168      0.661368   
  C  0.747424      0.418658      0.796368   
  C  0.602441      0.401174      0.591316   
  C  0.551085      0.266946      0.677605   
  C  0.652881      0.340973      0.633053   
  C  0.554508      0.389597      0.589684   
  C  0.519153      0.364195      0.617974   
  C  0.739424      0.351812      0.632868   
  C  0.699254      0.324966      0.640842   
  C  0.702780      0.284195      0.653526   
  C  0.744949      0.270503      0.663342   
  C  0.823627      0.355470      0.626132   
  C  0.786441      0.333456      0.638737   
  C  0.788136      0.292785      0.652605   
  C  0.829085      0.268322      0.653632   
  C  0.870136      0.290403      0.645579   
  C  0.910881      0.267349      0.649053   
  C  0.999288      0.347315      0.642421   
  C  0.943017      0.334161      0.630789   
  C  0.947797      0.288691      0.635684   
  C  0.991458      0.269732      0.643526   
  C  0.087492      0.468725      0.598947   
  C  0.089288      0.501443      0.574000   
  C  0.999525      0.467953      0.596895   
  C  0.049932      0.419430      0.647184   
  C  0.125051      0.447517      0.611316   
  C  0.108271      0.420302      0.652263   
  C  0.133661      0.380101      0.675605   
  C  0.241085      0.470201      0.572395   
  C  0.206847      0.449295      0.594737   
  C  0.250644      0.414396      0.614737   
  C  0.327254      0.463423      0.552684   
  C  0.285085      0.454631      0.571079   
  C  0.295220      0.424765      0.596816   
  C  0.408712      0.455805      0.540974   
  C  0.342305      0.410772      0.601789   
  C  0.367390      0.444933      0.565184   
  C  0.454780      0.441644      0.545737   
  C  0.491186      0.459866      0.527605   
  C  0.386271      0.344597      0.635237   
  C  0.473186      0.401174      0.568053   
  C  0.582305      0.453624      0.534895   
  C  0.535627      0.440034      0.540842   
  C  0.526983      0.404799      0.562026   
  C  0.696169      0.467148      0.559526   
  C  0.621695      0.437550      0.568316   
  C  0.670983      0.437450      0.575184   
  C  0.645729      0.378087      0.610316   
  C  0.741153      0.474564      0.563526   
  C  0.683830      0.400570      0.599289   
  C  0.733085      0.388893      0.612895   
  C  0.825458      0.454497      0.571895   
  C  0.771864      0.410805      0.600632   
  C  0.817763      0.396174      0.614553   
  C  0.869288      0.565436      0.529447   
  C  0.857220      0.487785      0.551000   
  C  0.890610      0.468624      0.593447   
  C  0.858712      0.419564      0.597921   
  C  0.908848      0.359463      0.618053   
  C  0.041525      0.448423      0.611632   
  C  0.868034      0.337148      0.630921   
  C  0.093898      0.592987      0.552237   
  C  0.044305      0.569597      0.555026   
  C  0.047763      0.524732      0.567895   
  C  0.174034      0.585839      0.537447   
  C  0.132780      0.563960      0.546974   
  C  0.133220      0.517517      0.567474   
  C  0.162746      0.470168      0.594658   
  C  0.250915      0.586711      0.514579   
  C  0.208068      0.558926      0.519316   
  C  0.210339      0.495537      0.510421   
  C  0.250169      0.489060      0.524368   
  C  0.330441      0.586611      0.507895   
  C  0.293390      0.562685      0.508816   
  C  0.290373      0.514060      0.514395   
  C  0.329254      0.494094      0.527342   
  C  0.411153      0.588255      0.505316   
  C  0.368373      0.561946      0.507184   
  C  0.368949      0.515805      0.514342   
  C  0.409797      0.495604      0.518158   
  C  0.494407      0.589362      0.506105   
  C  0.453220      0.567450      0.503316   
  C  0.452678      0.516913      0.503237   
  C  0.495729      0.501309      0.513316   
  C  0.577932      0.596510      0.514895   
  C  0.538203      0.570805      0.507316   
  C  0.540508      0.520570      0.506079   
  C  0.583695      0.497651      0.522737   
  C  0.663661      0.592617      0.517763   
  C  0.627593      0.567181      0.517974   
  C  0.624712      0.523289      0.527368   
  C  0.672237      0.501443      0.535737   
  C  0.741390      0.598758      0.507737   
  C  0.703864      0.570134      0.512579   
  C  0.708949      0.529698      0.529921   
  C  0.757017      0.512886      0.542579   
  C  0.835932      0.597785      0.514974   
  C  0.787424      0.581309      0.521842   
  C  0.795186      0.536745      0.535184   
  C  0.841966      0.526946      0.544684   
  C  0.916746      0.583456      0.535474   
  C  0.937831      0.474295      0.589132   
  C  0.993898      0.591175      0.551974   
  C  0.957322      0.565201      0.549921   
  C  0.962170      0.519732      0.564474   
  C  0.004203      0.504094      0.576974   
  C  0.177627      0.638490      0.533789   
  C  0.093288      0.640000      0.544421   
  C  0.216678      0.656476      0.534658   
  C  0.976305      0.688255      0.503684   
  C  0.136678      0.709161      0.532132   
  C  0.138136      0.662752      0.542947   
  C  0.254610      0.633188      0.519079   
  C  0.325661      0.733456      0.533605   
  C  0.286780      0.707819      0.528421   
  C  0.294000      0.655168      0.524474   
  C  0.330068      0.637181      0.512158   
  C  0.405661      0.728456      0.522447   
  C  0.369220      0.709094      0.516658   
  C  0.367661      0.663960      0.513605   
  C  0.410034      0.637584      0.501263   
  C  0.487559      0.725302      0.540474   
  C  0.451288      0.703389      0.521737   
  C  0.453186      0.659530      0.511868   
  C  0.493831      0.633356      0.513211   
  C  0.529559      0.704832      0.533289   
  C  0.532508      0.657651      0.522132   
  C  0.573898      0.637785      0.515632   
  C  0.636305      0.739631      0.548263   
  C  0.606169      0.711946      0.530579   
  C  0.616203      0.667819      0.516237   
  C  0.658271      0.639430      0.509079   
  C  0.775153      0.447215      0.577895   
  C  0.795593      0.625000      0.407447   
  C  0.947424      0.689027      0.466579   
  C  0.590237      0.665168      0.795526   
  C  0.715119      0.640839      0.488895   
  C  0.857559      0.633322      0.500605   
  C  0.899051      0.449765      0.230289   
  C  0.702136      0.682349      0.388026   
  C  0.911966      0.629497      0.514895   
  C  0.934068      0.671812      0.519553   
  C  0.067593      0.758859      0.848105   
  C  0.955525      0.566242      0.782211   
  C  0.984644      0.634295      0.538711   
  C  0.261288      0.729530      0.657132   
  C  0.060475      0.672383      0.556711   
  C  0.217559      0.741309      0.568421   
  C  0.079525      0.724161      0.557763   
  C  0.018102      0.668960      0.541368   
  C  0.116576      0.738490      0.577737   
  C  0.159831      0.743859      0.565947   
  C  0.257017      0.763154      0.574658   
  C  0.290170      0.744161      0.638974   
  C  0.224712      0.281208      0.772184   
  C  0.363492      0.768389      0.623895   
  C  0.320034      0.751510      0.617763   
  C  0.297695      0.779429      0.574053   
  C  0.326847      0.773758      0.548132   
  C  0.418780      0.822080      0.601842   
  C  0.371898      0.805604      0.600447   
  C  0.366203      0.794899      0.550605   
  C  0.403356      0.774832      0.532789   
  C  0.440305      0.801107      0.568105   
  C  0.637186      0.765772      0.570474   
  C  0.388305      0.125671      0.644395   
  C  0.466881      0.753423      0.581789   
  C  0.562983      0.724765      0.535079   
  C  0.481593      0.950101      0.815158   
  C  0.646169      0.788221      0.593921   
  C  0.074034      0.178893      0.754895   
  C  0.036305      0.152584      0.762500   
  C  0.037966      0.106409      0.758684   
  C  0.081898      0.084966      0.760974   
  C  0.160203      0.190268      0.762158   
  C  0.119017      0.113289      0.760421   
  C  0.161593      0.095973      0.753947   
  C  0.250373      0.181477      0.761421   
  C  0.201220      0.166779      0.758737   
  C  0.199458      0.117114      0.758474   
  C  0.241220      0.080604      0.761579   
  C  0.327932      0.166107      0.768579   
  C  0.288983      0.143725      0.761079   
  C  0.282441      0.103926      0.764211   
  C  0.324712      0.077819      0.769079   
  C  0.404339      0.180235      0.777079   
  C  0.368441      0.146879      0.775789   
  C  0.366881      0.099060      0.778421   
  C  0.403220      0.078725      0.781211   
  C  0.493085      0.174060      0.776421   
  C  0.446068      0.153826      0.779737   
  C  0.442305      0.100134      0.784316   
  C  0.483797      0.074933      0.787763   
  C  0.570373      0.190839      0.781316   
  C  0.532407      0.150906      0.782763   
  C  0.531797      0.103725      0.782763   
  C  0.572814      0.083221      0.788763   
  C  0.611763      0.161510      0.782947   
  C  0.612780      0.116007      0.789658   
  C  0.658170      0.092550      0.793079   
  C  0.657763      0.186208      0.780132   
  C  0.699831      0.159530      0.781947   
  C  0.701458      0.109295      0.778763   
  C  0.617797      0.184933      0.936789   
  C  0.740373      0.179631      0.763921   
  C  0.871491      0.091846      0.698947   
  C  0.894373      0.178792      0.751947   
  C  0.914475      0.138087      0.726211   
  C  0.901864      0.973523      0.755263   
  C  0.914881      0.067483      0.758447   
  C  0.994034      0.176745      0.754947   
  C  0.950373      0.161577      0.768289   
  C  0.948881      0.101577      0.763211   
  C  0.001356      0.084497      0.772237   
  C  0.062983      0.321913      0.743921   
  C  0.026407      0.294329      0.745579   
  C  0.030475      0.250906      0.749316   
  C  0.073220      0.226074      0.756526   
  C  0.106678      0.302987      0.760079   
  C  0.111966      0.251141      0.758290   
  C  0.152102      0.236611      0.762132   
  C  0.166034      0.361879      0.740158   
  C  0.276881      0.225268      0.766237   
  C  0.181356      0.278591      0.763079   
  C  0.411356      0.330940      0.780921   
  C  0.268373      0.272282      0.769158   
  C  0.386339      0.456107      0.798605   
  C  0.321153      0.213289      0.767579   
  C  0.324610      0.291544      0.770921   
  C  0.350136      0.246275      0.772474   
  C  0.404475      0.227517      0.775868   
  C  0.489830      0.322718      0.777447   
  C  0.448644      0.300067      0.776868   
  C  0.446983      0.251275      0.773895   
  C  0.489966      0.222114      0.771711   
  C  0.576237      0.319430      0.770526   
  C  0.528915      0.298691      0.771342   
  C  0.529729      0.252953      0.767132   
  C  0.578915      0.233557      0.771921   
  C  0.674949      0.315134      0.780658   
  C  0.624847      0.298893      0.773763   
  C  0.622102      0.254463      0.770947   
  C  0.662305      0.227282      0.772158   
  C  0.715051      0.291711      0.773184   
  C  0.705966      0.246846      0.768632   
  C  0.745864      0.223188      0.764947   
  C  0.818475      0.319564      0.772158   
  C  0.777356      0.290436      0.772684   
  C  0.784000      0.244463      0.765974   
  C  0.827085      0.223893      0.765632   
  C  0.901017      0.317617      0.757474   
  C  0.860475      0.296812      0.763500   
  C  0.860746      0.247852      0.760237   
  C  0.899186      0.226141      0.750789   
  C  0.984373      0.316678      0.741632   
  C  0.944576      0.293322      0.747500   
  C  0.946169      0.244430      0.752026   
  C  0.993254      0.222181      0.750684   
  C  0.064169      0.489530      0.777632   
  C  0.048034      0.369530      0.742658   
  C  0.134678      0.464899      0.746053   
  C  0.091254      0.447013      0.757763   
  C  0.080203      0.402416      0.750711   
  C  0.162746      0.395940      0.716026   
  C  0.207186      0.483926      0.749368   
  C  0.165695      0.444866      0.724158   
  C  0.268407      0.498591      0.781158   
  C  0.150949      0.325671      0.760526   
  C  0.390610      0.407517      0.786895   
  C  0.431559      0.383758      0.787289   
  C  0.353593      0.381846      0.783474   
  C  0.359525      0.335436      0.783132   
  C  0.503525      0.465336      0.803474   
  C  0.531119      0.385872      0.791526   
  C  0.487932      0.366242      0.780711   
  C  0.576949      0.450805      0.805395   
  C  0.534305      0.433893      0.801711   
  C  0.570508      0.361510      0.782579   
  C  0.683390      0.472919      0.808684   
  C  0.618508      0.422718      0.797105   
  C  0.610271      0.378289      0.790263   
  C  0.668102      0.359228      0.788658   
  C  0.664746      0.429899      0.805684   
  C  0.695864      0.396275      0.800474   
  C  0.595051      0.587517      0.816211   
  C  0.833220      0.454362      0.786395   
  C  0.788271      0.413356      0.783947   
  C  0.732407      0.472081      0.806289   
  C  0.822881      0.369430      0.774763   
  C  0.916271      0.449027      0.776763   
  C  0.869898      0.430940      0.773632   
  C  0.867458      0.387383      0.773237   
  C  0.905322      0.365537      0.758526   
  C  0.953051      0.428154      0.763158   
  C  0.951288      0.387517      0.752342   
  C  0.985831      0.361477      0.745921   
  C  0.073763      0.584698      0.780526   
  C  0.032678      0.561644      0.780605   
  C  0.020271      0.514933      0.781816   
  C  0.158441      0.655268      0.789816   
  C  0.097220      0.525940      0.776079   
  C  0.139695      0.513154      0.755684   
  C  0.254542      0.588859      0.780947   
  C  0.224034      0.561510      0.771658   
  C  0.243356      0.471409      0.765868   
  C  0.199288      0.531913      0.755395   
  C  0.332475      0.597517      0.793263   
  C  0.298169      0.570940      0.786842   
  C  0.304136      0.522953      0.790026   
  C  0.345695      0.504664      0.796500   
  C  0.415220      0.604161      0.805395   
  C  0.375458      0.578523      0.796658   
  C  0.379288      0.531275      0.804289   
  C  0.419661      0.510872      0.805684   
  C  0.496949      0.608255      0.809474   
  C  0.457254      0.580302      0.807079   
  C  0.457729      0.534128      0.808895   
  C  0.498339      0.512886      0.814079   
  C  0.542881      0.585201      0.810658   
  C  0.538170      0.539362      0.819263   
  C  0.576780      0.498389      0.810553   
  C  0.614509      0.530134      0.814184   
  C  0.658610      0.511477      0.817789   
  C  0.752780      0.596208      0.794500   
  C  0.711458      0.582248      0.810079   
  C  0.711458      0.540705      0.815237   
  C  0.753356      0.510436      0.803184   
  C  0.875491      0.572852      0.780553   
  C  0.796576      0.577987      0.796500   
  C  0.799763      0.526879      0.795947   
  C  0.835491      0.499463      0.788053   
  C  0.831831      0.599832      0.784000   
  C  0.878610      0.522081      0.786526   
  C  0.920407      0.495638      0.778211   
  C  0.994847      0.587987      0.785158   
  C  0.957864      0.520134      0.782421   
  C  0.918271      0.595839      0.780921   
  C  0.073831      0.726007      0.786500   
  C  0.035763      0.700403      0.784526   
  C  0.033898      0.659933      0.779316   
  C  0.074508      0.636779      0.777395   
  C  0.115729      0.710671      0.775316   
  C  0.119898      0.663020      0.776342   
  C  0.227390      0.711611      0.785132   
  C  0.115593      0.650369      0.867579   
  C  0.206949      0.664899      0.782105   
  C  0.251627      0.635805      0.785158   
  C  0.327051      0.742114      0.788684   
  C  0.290847      0.665738      0.789789   
  C  0.334576      0.648792      0.785579   
  C  0.411831      0.746913      0.797000   
  C  0.370644      0.723960      0.791263   
  C  0.374780      0.672081      0.794237   
  C  0.413322      0.651644      0.795947   
  C  0.493966      0.746275      0.799789   
  C  0.453729      0.722617      0.798632   
  C  0.453898      0.676477      0.799289   
  C  0.577695      0.742819      0.793237   
  C  0.534237      0.724732      0.792658   
  C  0.496136      0.650570      0.799553   
  C  0.615458      0.627852      0.809763   
  C  0.660780      0.738221      0.786289   
  C  0.614136      0.712651      0.795579   
  C  0.534746      0.677953      0.796447   
  C  0.746915      0.740369      0.770605   
  C  0.700576      0.715604      0.784711   
  C  0.730373      0.671846      0.763895   
  C  0.756305      0.642416      0.791947   
  C  0.832847      0.743591      0.817763   
  C  0.787254      0.698087      0.761289   
  C  0.805051      0.652852      0.784632   
  C  0.907186      0.728826      0.765395   
  C  0.850136      0.724664      0.775368   
  C  0.812780      0.823960      0.817211   
  C  0.946373      0.700268      0.776368   
  C  0.991932      0.724631      0.779921   
  C  0.944881      0.649698      0.783342   
  C  0.990475      0.633255      0.783632   
  C  0.060644      0.907752      0.786395   
  C  0.031898      0.846745      0.785105   
  C  0.034000      0.799060      0.787026   
  C  0.069085      0.772785      0.799158   
  C  0.113458      0.971409      0.768368   
  C  0.112712      0.889597      0.789342   
  C  0.127051      0.888154      0.824211   
  C  0.136305      0.917148      0.764816   
  C  0.166441      0.720537      0.794289   
  C  0.320576      0.884866      0.791710   
  C  0.285254      0.860268      0.785184   
  C  0.288000      0.819094      0.786500   
  C  0.322542      0.791510      0.791500   
  C  0.406068      0.889497      0.804184   
  C  0.366712      0.862114      0.798921   
  C  0.366271      0.815638      0.797368   
  C  0.413559      0.795000      0.799474   
  C  0.557322      0.917651      0.891395   
  C  0.452475      0.873691      0.807658   
  C  0.457492      0.819161      0.804053   
  C  0.495153      0.795772      0.799000   
  C  0.604034      0.869866      0.851211   
  C  0.540881      0.818020      0.804421   
  C  0.582983      0.789899      0.800263   
  C  0.655661      0.889295      0.797000   
  C  0.617525      0.860470      0.809289   
  C  0.619593      0.810235      0.803237   
  C  0.663525      0.783188      0.795237   
  C  0.755186      0.875101      0.796316   
  C  0.707831      0.858389      0.799342   
  C  0.703356      0.807349      0.793658   
  C  0.744576      0.787919      0.785789   
  C  0.880881      0.950671      0.924421   
  C  0.854983      0.801175      0.811763   
  C  0.819559      0.866242      0.836684   
  C  0.911593      0.884396      0.766368   
  C  0.901898      0.920268      0.741263   
  C  0.860169      0.784463      0.780316   
  C  0.921051      0.774664      0.758158   
  C  0.992203      0.869027      0.785474   
  C  0.951763      0.848826      0.772158   
  C  0.952136      0.797584      0.771000   
  C  0.991729      0.773490      0.778868   
  C  0.084441      0.040570      0.758605   
  C  0.063797      0.960101      0.773500   
  C  0.176034      0.065906      0.709868   
  C  0.124475      0.016007      0.761658   
  C  0.177390      0.923121      0.770526   
  C  0.241864      0.032282      0.761658   
  C  0.281390      0.007181      0.772263   
  C  0.207492      0.955638      0.769211   
  C  0.247898      0.938020      0.775684   
  C  0.318610      0.031711      0.778000   
  C  0.282949      0.958792      0.778789   
  C  0.325864      0.933658      0.784684   
  C  0.359729      0.007383      0.784158   
  C  0.358746      0.960638      0.793526   
  C  0.400339      0.935470      0.801421   
  C  0.482102      0.029463      0.794342   
  C  0.400949      0.028826      0.788868   
  C  0.440746      0.962852      0.800895   
  C  0.516678      0.984128      0.811158   
  C  0.440271      0.007450      0.793026   
  C  0.558305      0.972819      0.827842   
  C  0.651627      0.044228      0.790553   
  C  0.606169      0.028020      0.793132   
  C  0.600169      0.986678      0.805368   
  C  0.710475      0.035000      0.843895   
  C  0.685831      0.014195      0.800395   
  C  0.644949      0.940000      0.802368   
  C  0.924949      0.019530      0.766079   
  C  0.756915      0.017047      0.849737   
  C  0.680373      0.971477      0.821605   
  C  0.883763      0.080134      0.736316   
  C  0.781085      0.822013      0.781342   
  C  0.931220      0.937315      0.787605   
  C  0.008000      0.037752      0.786395   
  C  0.958780      0.012047      0.795658   
  C  0.967525      0.966611      0.803947   
  C  0.047661      0.013557      0.770553   
  C  0.324068      0.892282      0.955000   
  C  0.452949      0.043523      0.901868   
  C  0.423322      0.209664      0.995605   
  C  0.650102      0.160134      0.935421   
  C  0.620508      0.074899      0.919658   
  C  0.922373      0.133523      0.085316   
  C  0.002542      0.991074      0.068237   
  C  0.122441      0.259195      0.977605   
  C  0.132102      0.216812      0.994000   
  C  0.198610      0.235906      0.982263   
  C  0.346915      0.297416      0.026658   
  C  0.474203      0.278490      0.042974   
  C  0.580847      0.299262      0.003079   
  C  0.513627      0.027685      0.927395   
  C  0.318068      0.319966      0.046816   
  C  0.693797      0.200604      0.072711   
  C  0.711186      0.216913      0.046842   
  C  0.690644      0.306107      0.017658   
  C  0.724780      0.263624      0.020421   
  C  0.631932      0.345872      0.989132   
  C  0.793458      0.318188      0.020211   
  C  0.900576      0.297785      0.935868   
  C  0.892678      0.134799      0.941816   
  C  0.949831      0.303624      0.990053   
  C  0.103288      0.409027      0.936737   
  C  0.328508      0.422819      0.996316   
  C  0.395288      0.302349      0.976947   
  C  0.288305      0.453826      0.979184   
  C  0.279763      0.272584      0.985605   
  C  0.345695      0.429530      0.948211   
  C  0.227424      0.274832      0.957605   
  C  0.379898      0.403893      0.942184   
  C  0.174034      0.320403      0.978474   
  C  0.289017      0.259329      0.051711   
  C  0.427797      0.305470      0.010842   
  C  0.507186      0.398825      0.991447   
  C  0.461186      0.373691      0.993579   
  C  0.463729      0.329295      0.998868   
  C  0.506610      0.321477      0.013474   
  C  0.585559      0.404832      0.988237   
  C  0.546169      0.381342      0.994868   
  C  0.544203      0.332752      0.999868   
  C  0.668983      0.418758      0.991711   
  C  0.630780      0.388054      0.998447   
  C  0.746814      0.422315      0.996737   
  C  0.706814      0.400034      0.000237   
  C  0.781729      0.345940      0.918868   
  C  0.826034      0.415537      0.003553   
  C  0.783525      0.394933      0.005921   
  C  0.767322      0.351409      0.014974   
  C  0.720949      0.350604      0.008579   
  C  0.905864      0.434732      0.004421   
  C  0.869627      0.401477      0.006579   
  C  0.881458      0.355470      0.014421   
  C  0.959220      0.355570      0.118342   
  C  0.859085      0.326040      0.075974   
  C  0.896305      0.551477      0.995816   
  C  0.153288      0.355470      0.960079   
  C  0.305797      0.542383      0.990316   
  C  0.323186      0.497315      0.985763   
  C  0.244576      0.468020      0.941868   
  C  0.461153      0.706040      0.889684   
  C  0.368203      0.453490      0.999868   
  C  0.417288      0.547651      0.981474   
  C  0.329322      0.552047      0.897868   
  C  0.412339      0.436175      0.987842   
  C  0.549288      0.650839      0.988763   
  C  0.439424      0.517416      0.999711   
  C  0.452915      0.471779      0.986579   
  C  0.503695      0.452383      0.991421   
  C  0.593695      0.548221      0.988158   
  C  0.549017      0.525772      0.985684   
  C  0.546508      0.477248      0.983132   
  C  0.585559      0.456745      0.988184   
  C  0.673593      0.545604      0.989395   
  C  0.631525      0.525101      0.982263   
  C  0.626881      0.481208      0.980632   
  C  0.763627      0.551107      0.006289   
  C  0.668712      0.461443      0.989184   
  C  0.707492      0.493356      0.992000   
  C  0.752237      0.468356      0.997158   
  C  0.800949      0.527953      0.998184   
  C  0.797051      0.485403      0.997921   
  C  0.829322      0.459698      0.990158   
  C  0.877695      0.480738      0.994974   
  C  0.867763      0.524295      0.000605   
  C  0.829288      0.598054      0.064684   
  C  0.223322      0.688188      0.964579   
  C  0.217898      0.648121      0.967474   
  C  0.248271      0.617752      0.959684   
  C  0.302847      0.572550      0.059342   
  C  0.326136      0.681242      0.963500   
  C  0.292780      0.624195      0.961342   
  C  0.325288      0.594430      0.968263   
  C  0.410644      0.685134      0.973105   
  C  0.368339      0.663859      0.967579   
  C  0.369220      0.615201      0.968500   
  C  0.413559      0.590470      0.969868   
  C  0.498169      0.683188      0.970579   
  C  0.454407      0.665000      0.970737   
  C  0.454746      0.615067      0.971868   
  C  0.586000      0.680034      0.984447   
  C  0.527831      0.586174      0.986447   
  C  0.592881      0.596779      0.989395   
  C  0.656475      0.697718      0.947026   
  C  0.629830      0.603960      0.057711   
  C  0.632542      0.612181      0.006737   
  C  0.780237      0.753826      0.072947   
  C  0.697763      0.703591      0.929789   
  C  0.757831      0.597685      0.008263   
  C  0.643593      0.674396      0.986895   
  C  0.041390      0.790403      0.868132   
  C  0.170068      0.742315      0.024474   
  C  0.237153      0.832315      0.992237   
  C  0.192034      0.813960      0.000763   
  C  0.189424      0.763490      0.997868   
  C  0.233153      0.730604      0.972447   
  C  0.310102      0.829060      0.977447   
  C  0.272508      0.802114      0.987474   
  C  0.274814      0.750772      0.972289   
  C  0.320339      0.723591      0.969079   
  C  0.275864      0.877450      0.977211   
  C  0.363661      0.802886      0.975184   
  C  0.359932      0.747953      0.971895   
  C  0.403966      0.731107      0.981500   
  C  0.537932      0.806879      0.977342   
  C  0.500915      0.751275      0.916474   
  C  0.500000      0.728691      0.975921   
  C  0.574508      0.845336      0.953526   
  C  0.428136      0.750403      0.006474   
  C  0.542712      0.748121      0.973947   
  C  0.578983      0.718926      0.964842   
  C  0.647220      0.808356      0.006579   
  C  0.624949      0.812685      0.957947   
  C  0.627559      0.745101      0.963342   
  C  0.667729      0.727550      0.999263   
  C  0.053593      0.426644      0.180658   
  C  0.058780      0.470537      0.181447   
  C  0.088441      0.398456      0.196579   
  C  0.988407      0.432013      0.136237   
  C  0.987932      0.477987      0.129684   
  C  0.091322      0.495940      0.192789   
  C  0.158441      0.397953      0.216368   
  C  0.127695      0.419362      0.204184   
  C  0.127797      0.469329      0.202789   
  C  0.172271      0.493121      0.202816   
  C  0.274983      0.406376      0.209000   
  C  0.212678      0.476074      0.200658   
  C  0.250780      0.499295      0.202500   
  C  0.397763      0.376711      0.210132   
  C  0.291254      0.414195      0.167132   
  C  0.293763      0.472081      0.190289   
  C  0.338136      0.488725      0.193421   
  C  0.409966      0.414161      0.205816   
  C  0.379356      0.467114      0.187816   
  C  0.417051      0.493725      0.177316   
  C  0.445661      0.438825      0.188395   
  C  0.501119      0.499899      0.172079   
  C  0.585322      0.412114      0.187684   
  C  0.547322      0.433960      0.174816   
  C  0.546203      0.481242      0.172395   
  C  0.587356      0.508121      0.164658   
  C  0.658508      0.422718      0.204816   
  C  0.621017      0.446577      0.190632   
  C  0.624509      0.494295      0.180632   
  C  0.667729      0.512718      0.176605   
  C  0.757695      0.425302      0.200368   
  C  0.701085      0.444060      0.196368   
  C  0.702136      0.491644      0.193289   
  C  0.743797      0.499799      0.175237   
  C  0.953492      0.406074      0.121737   
  C  0.780068      0.480403      0.184816   
  C  0.808712      0.444329      0.166184   
  C  0.848475      0.491779      0.152921   
  C  0.818780      0.405604      0.188342   
  C  0.884068      0.467416      0.175500   
  C  0.910339      0.495235      0.195026   
  C  0.126949      0.616946      0.187447   
  C  0.920644      0.631007      0.172500   
  C  0.090305      0.544530      0.188395   
  C  0.049864      0.575705      0.178921   
  C  0.084712      0.625638      0.165974   
  C  0.875119      0.845168      0.108737   
  C  0.170305      0.542752      0.197579   
  C  0.127085      0.565436      0.199816   
  C  0.210746      0.571409      0.204763   
  C  0.252034      0.545940      0.202132   
  C  0.337729      0.540067      0.192447   
  C  0.294441      0.564060      0.192395   
  C  0.295390      0.609262      0.187895   
  C  0.334237      0.634362      0.179500   
  C  0.420339      0.542550      0.177579   
  C  0.379017      0.565470      0.177289   
  C  0.374678      0.612819      0.170974   
  C  0.410475      0.634597      0.156342   
  C  0.498237      0.539295      0.162026   
  C  0.456475      0.560906      0.163605   
  C  0.458034      0.610201      0.155658   
  C  0.494000      0.630201      0.143658   
  C  0.581661      0.554899      0.159658   
  C  0.539797      0.565772      0.155842   
  C  0.532746      0.607953      0.146553   
  C  0.565864      0.647114      0.146211   
  C  0.665017      0.559597      0.160632   
  C  0.621864      0.581611      0.152526   
  C  0.616576      0.631309      0.150342   
  C  0.658780      0.656175      0.149395   
  C  0.747254      0.543289      0.160711   
  C  0.704271      0.580235      0.154526   
  C  0.703220      0.624396      0.150211   
  C  0.746915      0.642718      0.157658   
  C  0.837864      0.537752      0.156026   
  C  0.792373      0.564765      0.148763   
  C  0.793661      0.611577      0.154868   
  C  0.833729      0.634027      0.161184   
  C  0.919288      0.545369      0.183526   
  C  0.874881      0.564966      0.169632   
  C  0.880170      0.607584      0.163789   
  C  0.956881      0.581409      0.181237   
  C  0.004475      0.617685      0.387316   
  C  0.909695      0.854127      0.137816   
  C  0.211932      0.618221      0.193421   
  C  0.155390      0.650235      0.134105   
  C  0.965254      0.849530      0.059263   
  C  0.096983      0.652651      0.137921   
  C  0.255186      0.635570      0.188132   
  C  0.957831      0.815772      0.867395   
  C  0.254441      0.689396      0.189737   
  C  0.247797      0.753624      0.178395   
  C  0.332169      0.681913      0.176974   
  C  0.299051      0.705302      0.193842   
  C  0.298271      0.750134      0.186000   
  C  0.334644      0.775537      0.176263   
  C  0.412542      0.680201      0.157132   
  C  0.373288      0.703255      0.169789   
  C  0.374305      0.751946      0.171342   
  C  0.414610      0.773825      0.166368   
  C  0.508169      0.678087      0.145816   
  C  0.457458      0.704664      0.156447   
  C  0.451593      0.746141      0.162132   
  C  0.576678      0.774027      0.171000   
  C  0.660542      0.705034      0.163132   
  C  0.668576      0.769228      0.173632   
  C  0.752136      0.682315      0.163974   
  C  0.709695      0.707148      0.172184   
  C  0.711898      0.752047      0.176263   
  C  0.752475      0.773221      0.189974   
  C  0.832678      0.683289      0.163158   
  C  0.792136      0.703725      0.171368   
  C  0.794339      0.749430      0.180711   
  C  0.836576      0.771611      0.184579   
  C  0.918814      0.686443      0.165868   
  C  0.873220      0.709128      0.165763   
  C  0.873661      0.754128      0.170395   
  C  0.915627      0.770738      0.176474   
  C  0.946983      0.733624      0.170684   
  C  0.124068      0.893758      0.143947   
  C  0.031288      0.069430      0.103079   
  C  0.034373      0.117919      0.213474   
  C  0.139424      0.072819      0.198658   
  C  0.148000      0.846779      0.144053   
  C  0.129356      0.814966      0.130289   
  C  0.088373      0.902785      0.131553   
  C  0.160576      0.921946      0.159711   
  C  0.238271      0.802081      0.170921   
  C  0.194746      0.840336      0.158526   
  C  0.196102      0.893792      0.168395   
  C  0.232644      0.908758      0.179211   
  C  0.329458      0.824228      0.179132   
  C  0.276136      0.834698      0.181395   
  C  0.268746      0.881409      0.185237   
  C  0.304034      0.901745      0.196053   
  C  0.415051      0.823591      0.174105   
  C  0.365220      0.848121      0.181816   
  C  0.354000      0.893289      0.193316   
  C  0.352102      0.957013      0.187842   
  C  0.497729      0.835268      0.171474   
  C  0.452136      0.852013      0.171921   
  C  0.469424      0.907383      0.192947   
  C  0.507017      0.902047      0.205237   
  C  0.583356      0.812886      0.180132   
  C  0.540169      0.838389      0.186237   
  C  0.549220      0.880570      0.203605   
  C  0.587390      0.907148      0.193158   
  C  0.670678      0.816476      0.178763   
  C  0.625051      0.839698      0.181737   
  C  0.626780      0.881946      0.186605   
  C  0.669186      0.906846      0.177763   
  C  0.754068      0.820671      0.190947   
  C  0.712441      0.841879      0.190974   
  C  0.711220      0.888221      0.183316   
  C  0.750542      0.911242      0.179684   
  C  0.837254      0.816175      0.191211   
  C  0.793830      0.840268      0.193421   
  C  0.793424      0.890671      0.182553   
  C  0.835424      0.919396      0.159816   
  C  0.924712      0.816443      0.177737   
  C  0.878576      0.840302      0.184316   
  C  0.885932      0.896040      0.158842   
  C  0.085593      0.055839      0.152789   
  C  0.159322      0.968423      0.164974   
  C  0.126847      0.017651      0.149526   
  C  0.244644      0.958691      0.177289   
  C  0.203390      0.990101      0.179316   
  C  0.296102      0.959094      0.193474   
  C  0.164915      0.038289      0.178474   
  C  0.383492      0.978557      0.161737   
  C  0.439831      0.952785      0.145526   
  C  0.508271      0.981946      0.174368   
  C  0.587525      0.955705      0.205526   
  C  0.475966      0.943624      0.165000   
  C  0.658339      0.963087      0.172421   
  C  0.616780      0.978322      0.185684   
  C  0.783525      0.946342      0.147816   
  C  0.668203      0.991779      0.143026   
  C  0.716780      0.005134      0.133789   
  C  0.760000      0.968826      0.122395   
  C  0.489898      0.443926      0.193632   
  C  0.640034      0.375067      0.193289   
  C  0.988237      0.947215      0.861474   
  C  0.204203      0.005000      0.761289   
  C  0.165898      0.025503      0.746605   
  C  0.967254      0.639530      0.404474   
  C  0.002814      0.573993      0.185868   
  C  0.005797      0.499161      0.329526   
