#======================================================================

# CRYSTAL DATA

#----------------------------------------------------------------------

data_VESTA_phase_1

_chemical_name_common                  'convergedACF15.xyz'
_cell_length_a                         29.50000
_cell_length_b                         29.80000
_cell_length_c                         30.20000
_cell_angle_alpha                      90
_cell_angle_beta                       90
_cell_angle_gamma                      90
_symmetry_space_group_name_H-M        'P 1'
_symmetry_space_group_name_Hall	      'P 1' 
_symmetry_Int_Tables_number	        1

loop_
_symmetry_equiv_pos_as_xyz
   'x, y, z'

loop_
   _atom_site_label
   _atom_site_fract_x
   _atom_site_fract_y
   _atom_site_fract_z
  C     -0.411420     -0.384718     -0.308973  
  C     -0.458514     -0.407470     -0.306412  
  C     -0.459992     -0.455668     -0.320187  
  C     -0.421405     -0.474893     -0.330232  
  C     -0.334372     -0.395971     -0.304372  
  C     -0.373385     -0.410802     -0.312344  
  C     -0.379254     -0.454253     -0.323542  
  C     -0.345792     -0.480179     -0.336319  
  C     -0.251130     -0.378127     -0.312306  
  C     -0.293794     -0.394459     -0.306066  
  C     -0.225965     -0.485606     -0.352114  
  C     -0.160082     -0.377553     -0.310947  
  C     -0.205336     -0.406899     -0.315839  
  C     -0.198301     -0.457242     -0.332814  
  C     -0.146417     -0.476525     -0.323162  
  C     -0.079785     -0.374837     -0.305739  
  C     -0.117701     -0.400582     -0.309428  
  C     -0.118985     -0.444616     -0.309882  
  C      0.007840     -0.374434     -0.298883  
  C     -0.036555     -0.400587     -0.307970  
  C     -0.031189     -0.442874     -0.329032  
  C      0.009087     -0.472091     -0.335750  
  C      0.093301     -0.377738     -0.293787  
  C      0.047494     -0.401804     -0.300639  
  C      0.048661     -0.450260     -0.318496  
  C      0.093134     -0.468488     -0.320143  
  C      0.171110     -0.377307     -0.293567  
  C      0.133462     -0.400543     -0.294782  
  C      0.134140     -0.446896     -0.312843  
  C      0.174266     -0.465514     -0.332753  
  C      0.250512     -0.355480     -0.329161  
  C      0.213950     -0.396694     -0.319817  
  C      0.208413     -0.437397     -0.335497  
  C      0.339534     -0.364380     -0.341573  
  C      0.299092     -0.382348     -0.337841  
  C      0.297959     -0.430851     -0.340685  
  C      0.333416     -0.463345     -0.343143  
  C      0.374790     -0.397335     -0.342780  
  C      0.375152     -0.443304     -0.342744  
  C      0.411199     -0.468870     -0.339496  
  C      0.499630     -0.380799     -0.300966  
  C      0.457931     -0.404739     -0.304784  
  C      0.453089     -0.451278     -0.317989  
  C      0.496864     -0.476469     -0.323520  
  C     -0.454575     -0.264702     -0.311126  
  C     -0.456938     -0.310487     -0.311270  
  C     -0.410674     -0.334787     -0.307337  
  C     -0.334848     -0.246212     -0.328786  
  C     -0.333606     -0.291667     -0.313401  
  C     -0.371898     -0.313298     -0.307506  
  C     -0.230780     -0.230297     -0.304393  
  C     -0.288007     -0.308582     -0.313026  
  C     -0.249267     -0.330244     -0.313151  
  C     -0.164078     -0.245414     -0.340454  
  C     -0.201847     -0.260416     -0.318810  
  C     -0.204797     -0.305951     -0.314528  
  C     -0.163541     -0.329244     -0.309520  
  C     -0.089041     -0.233928     -0.328563  
  C     -0.123142     -0.262148     -0.327618  
  C     -0.121542     -0.306092     -0.314378  
  C     -0.080813     -0.327272     -0.309807  
  C      0.012093     -0.233439     -0.307399  
  C     -0.039687     -0.306348     -0.309115  
  C      0.006728     -0.324580     -0.299401  
  C      0.087474     -0.241197     -0.322370  
  C      0.051360     -0.260193     -0.310827  
  C      0.050521     -0.303318     -0.302109  
  C      0.086413     -0.328354     -0.294933  
  C      0.173853     -0.243420     -0.339629  
  C      0.132694     -0.256861     -0.321148  
  C      0.178007     -0.324208     -0.289053  
  C      0.251443     -0.247020     -0.356741  
  C      0.214903     -0.264687     -0.339084  
  C      0.220940     -0.308562     -0.320944  
  C      0.288341     -0.263598     -0.359657  
  C      0.313551     -0.295108     -0.358308  
  C      0.347661     -0.323190     -0.345283  
  C      0.429714     -0.231862     -0.341097  
  C      0.390046     -0.259379     -0.337132  
  C      0.386349     -0.303221     -0.336951  
  C      0.424158     -0.323843     -0.326370  
  C     -0.484219     -0.243600     -0.335998  
  C      0.470997     -0.259236     -0.333002  
  C      0.463461     -0.308895     -0.320595  
  C     -0.499735     -0.333201     -0.309694  
  C     -0.468040     -0.102266     -0.364580  
  C     -0.425523     -0.246237     -0.290203  
  C     -0.434895     -0.087632     -0.346715  
  C     -0.315827     -0.208612     -0.331520  
  C     -0.242820     -0.106205     -0.335690  
  C     -0.273955     -0.141977     -0.333008  
  C     -0.284539     -0.180143     -0.318735  
  C     -0.255009     -0.198198     -0.291531  
  C     -0.162417     -0.095990     -0.327994  
  C     -0.202907     -0.113616     -0.323216  
  C     -0.168131     -0.217510     -0.371372  
  C     -0.080271     -0.100129     -0.343938  
  C     -0.121012     -0.116198     -0.325341  
  C     -0.067547     -0.199792     -0.329451  
  C      0.003872     -0.100314     -0.359510  
  C     -0.038559     -0.125099     -0.342298  
  C     -0.034583     -0.170309     -0.330811  
  C      0.006112     -0.187060     -0.324750  
  C      0.088935     -0.100756     -0.376019  
  C      0.047079     -0.121588     -0.357982  
  C      0.045974     -0.166198     -0.341554  
  C      0.084571     -0.191500     -0.342340  
  C      0.166780     -0.107629     -0.397078  
  C      0.125104     -0.122864     -0.377704  
  C      0.125516     -0.173047     -0.358949  
  C      0.171045     -0.197976     -0.363978  
  C      0.247495     -0.103672     -0.398684  
  C      0.208768     -0.127048     -0.396772  
  C      0.207934     -0.171725     -0.379545  
  C      0.333079     -0.098614     -0.395170  
  C      0.287657     -0.127089     -0.388363  
  C      0.299109     -0.172175     -0.376352  
  C      0.336992     -0.189035     -0.367281  
  C      0.416520     -0.101944     -0.395677  
  C      0.378570     -0.122730     -0.386516  
  C      0.379688     -0.168001     -0.371224  
  C      0.419894     -0.189955     -0.356629  
  C      0.497576     -0.095528     -0.387506  
  C      0.457199     -0.118097     -0.388213  
  C     -0.475819     -0.208249     -0.353067  
  C     -0.420328      0.032360     -0.402411  
  C     -0.462704      0.014169     -0.416852  
  C     -0.404011     -0.059279     -0.340668  
  C     -0.331383      0.036773     -0.393580  
  C     -0.378449      0.011997     -0.383062  
  C     -0.372751     -0.032428     -0.350387  
  C     -0.329948     -0.041242     -0.342344  
  C     -0.243828      0.036544     -0.387309  
  C     -0.286783      0.011092     -0.382064  
  C     -0.289029     -0.031379     -0.356268  
  C     -0.256506     -0.063268     -0.350119  
  C     -0.208177      0.015233     -0.378723  
  C     -0.161654     -0.052382     -0.342180  
  C     -0.084614      0.040693     -0.394116  
  C     -0.121982      0.016422     -0.381965  
  C     -0.126295     -0.027700     -0.362788  
  C     -0.081649     -0.055028     -0.364984  
  C     -0.004217      0.036659     -0.412014  
  C     -0.045787      0.019434     -0.395922  
  C     -0.042567     -0.031692     -0.380155  
  C     -0.001209     -0.052534     -0.378579  
  C      0.084205      0.042880     -0.421148  
  C      0.038826      0.017616     -0.414560  
  C      0.041228     -0.033013     -0.396898  
  C      0.086559     -0.054920     -0.395332  
  C      0.163430      0.039054     -0.420749  
  C      0.123814      0.019034     -0.421561  
  C      0.119779     -0.028350     -0.413043  
  C      0.246495      0.043510     -0.419306  
  C      0.205039      0.020397     -0.412901  
  C      0.208908     -0.026737     -0.408108  
  C      0.247209     -0.055854     -0.404581  
  C      0.331793      0.043626     -0.418482  
  C      0.290267      0.019001     -0.415911  
  C      0.291505     -0.032154     -0.408347  
  C      0.332956     -0.052705     -0.405755  
  C      0.414294      0.037003     -0.430606  
  C      0.371651      0.016820     -0.422960  
  C      0.371492     -0.032599     -0.414679  
  C      0.414220     -0.055356     -0.414284  
  C      0.497232      0.035125     -0.424570  
  C      0.455158      0.012675     -0.428143  
  C      0.455437     -0.032772     -0.424178  
  C      0.495442     -0.056935     -0.411912  
  C     -0.421705      0.180673     -0.408017  
  C     -0.457299      0.162217     -0.413949  
  C     -0.459799      0.110296     -0.416057  
  C     -0.416769      0.085523     -0.408706  
  C     -0.337379      0.182019     -0.422418  
  C     -0.377068      0.100643     -0.408937  
  C     -0.333081      0.082947     -0.405814  
  C     -0.255971      0.180537     -0.417947  
  C     -0.297038      0.155692     -0.416347  
  C     -0.291584      0.108847     -0.408894  
  C     -0.250004      0.082023     -0.400713  
  C     -0.170762      0.183727     -0.421424  
  C     -0.213882      0.162721     -0.425500  
  C     -0.164368      0.086151     -0.420400  
  C     -0.086510      0.184300     -0.410696  
  C     -0.127090      0.159024     -0.418226  
  C     -0.127935      0.107320     -0.415470  
  C     -0.083855      0.085148     -0.404958  
  C     -0.006241      0.185763     -0.411519  
  C     -0.044578      0.160159     -0.408940  
  C     -0.047118      0.116201     -0.408539  
  C      0.078905      0.189210     -0.419054  
  C      0.035167      0.161136     -0.415016  
  C      0.041633      0.113244     -0.417537  
  C      0.082966      0.088253     -0.421691  
  C      0.159691      0.191562     -0.422563  
  C      0.120946      0.166700     -0.425626  
  C      0.119868      0.119058     -0.425936  
  C      0.246504      0.192619     -0.420520  
  C      0.205840      0.166512     -0.423906  
  C      0.210516      0.120786     -0.425263  
  C      0.247545      0.090460     -0.423915  
  C      0.335673      0.193650     -0.422713  
  C      0.291465      0.169262     -0.424462  
  C      0.292152      0.113643     -0.424041  
  C      0.331574      0.089633     -0.423906  
  C      0.418428      0.177208     -0.427073  
  C      0.378241      0.163584     -0.424269  
  C      0.371402      0.112267     -0.426736  
  C      0.414659      0.086854     -0.431719  
  C      0.499406      0.184170     -0.425834  
  C      0.459322      0.156093     -0.428473  
  C      0.457926      0.112133     -0.427067  
  C      0.497725      0.088757     -0.423206  
  C     -0.431942      0.333459     -0.403733  
  C     -0.478855      0.314561     -0.405237  
  C     -0.484077      0.267194     -0.416094  
  C     -0.344037      0.328818     -0.406940  
  C     -0.389792      0.305062     -0.415038  
  C     -0.383667      0.258639     -0.425331  
  C     -0.344971      0.229390     -0.424388  
  C     -0.264950      0.324010     -0.385516  
  C     -0.305046      0.304194     -0.404772  
  C     -0.301992      0.253707     -0.415516  
  C     -0.258770      0.228486     -0.411515  
  C     -0.175531      0.323393     -0.382765  
  C     -0.220167      0.297376     -0.390570  
  C     -0.217668      0.253442     -0.403094  
  C     -0.172644      0.232012     -0.409450  
  C     -0.096150      0.326763     -0.405129  
  C     -0.133533      0.301690     -0.394750  
  C     -0.132054      0.256125     -0.400418  
  C     -0.093764      0.230201     -0.402616  
  C     -0.007632      0.332355     -0.414383  
  C     -0.054112      0.308694     -0.417376  
  C     -0.002751      0.233556     -0.407428  
  C      0.074731      0.333427     -0.398755  
  C      0.034613      0.306420     -0.406375  
  C      0.035013      0.264323     -0.407349  
  C      0.077705      0.242245     -0.410865  
  C      0.151934      0.343226     -0.395417  
  C      0.117565      0.313192     -0.401754  
  C      0.119851      0.265941     -0.409980  
  C      0.163092      0.240242     -0.412101  
  C      0.248079      0.378775     -0.426737  
  C      0.202509      0.255566     -0.408621  
  C      0.239481      0.235707     -0.415078  
  C      0.320014      0.357403     -0.406680  
  C      0.281408      0.353036     -0.431531  
  C      0.340874      0.240192     -0.420455  
  C      0.401671      0.346562     -0.393688  
  C      0.358697      0.325470     -0.406878  
  C      0.350419      0.279057     -0.416185  
  C      0.489185      0.348834     -0.394957  
  C      0.463614      0.245137     -0.462772  
  C      0.494557      0.234623     -0.436156  
  C     -0.421861      0.478519     -0.351053  
  C     -0.465951      0.455678     -0.360085  
  C     -0.469000      0.411560     -0.378853  
  C     -0.425515      0.385157     -0.390297  
  C     -0.336170      0.480917     -0.357387  
  C     -0.375656      0.454264     -0.365198  
  C     -0.379433      0.403927     -0.383394  
  C     -0.345460      0.373946     -0.392432  
  C     -0.256213      0.490899     -0.363705  
  C     -0.295357      0.474986     -0.367665  
  C     -0.259807      0.363568     -0.360335  
  C     -0.136657      0.482346     -0.332867  
  C     -0.221608      0.379073     -0.350242  
  C     -0.179628      0.370592     -0.362007  
  C     -0.080131      0.431842     -0.320126  
  C     -0.118550      0.437761     -0.337001  
  C     -0.136971      0.397331     -0.363421  
  C     -0.097962      0.376830     -0.391334  
  C      0.017834      0.487908     -0.353459  
  C     -0.056535      0.400232     -0.398552  
  C     -0.011920      0.383394     -0.406439  
  C      0.026008      0.451055     -0.371670  
  C      0.030106      0.408559     -0.388162  
  C      0.069071      0.379719     -0.391063  
  C      0.174063      0.493642     -0.347302  
  C      0.183354      0.458213     -0.363786  
  C      0.169555      0.378588     -0.387610  
  C      0.245215      0.481657     -0.330033  
  C      0.194795      0.421176     -0.380114  
  C      0.242291      0.412797     -0.394955  
  C      0.320064      0.495593     -0.347378  
  C      0.281062      0.468348     -0.348242  
  C      0.281309      0.429919     -0.372793  
  C      0.325902      0.404642     -0.382113  
  C      0.413483      0.488811     -0.355183  
  C      0.367775      0.414769     -0.371339  
  C      0.408155      0.393071     -0.377176  
  C      0.494126      0.476910     -0.348703  
  C      0.451242      0.457775     -0.360133  
  C      0.449176      0.414530     -0.375002  
  C      0.488346      0.391037     -0.382461  
  C     -0.404733     -0.368624     -0.244437  
  C     -0.438682     -0.400652     -0.236159  
  C     -0.446043     -0.443561     -0.250095  
  C     -0.328174     -0.370991     -0.220423  
  C     -0.325905     -0.469509     -0.217304  
  C     -0.247394     -0.376665     -0.225233  
  C     -0.290899     -0.401967     -0.221332  
  C     -0.291075     -0.449019     -0.220481  
  C     -0.246899     -0.466857     -0.219512  
  C     -0.166684     -0.372857     -0.224982  
  C     -0.205542     -0.400789     -0.225354  
  C     -0.204770     -0.447882     -0.221433  
  C     -0.166775     -0.466609     -0.221589  
  C     -0.079419     -0.372081     -0.220578  
  C     -0.124156     -0.394823     -0.222838  
  C     -0.124078     -0.448552     -0.221828  
  C     -0.080248     -0.465780     -0.217509  
  C      0.002796     -0.371950     -0.219553  
  C     -0.040748     -0.396935     -0.217500  
  C     -0.039135     -0.445108     -0.212346  
  C      0.000170     -0.461436     -0.200499  
  C      0.081265     -0.378258     -0.217709  
  C      0.041213     -0.396293     -0.211634  
  C      0.036810     -0.440095     -0.199727  
  C      0.114903     -0.403072     -0.224800  
  C      0.149310     -0.424469     -0.224750  
  C      0.186898     -0.438632     -0.219133  
  C      0.277988     -0.378217     -0.204853  
  C      0.241771     -0.393548     -0.195165  
  C      0.227552     -0.435522     -0.207222  
  C      0.265303     -0.464951     -0.215982  
  C      0.351798     -0.373457     -0.225611  
  C      0.314248     -0.395739     -0.218116  
  C      0.313110     -0.445441     -0.224546  
  C      0.347088     -0.468305     -0.235390  
  C      0.435186     -0.378803     -0.223654  
  C      0.391478     -0.392861     -0.229011  
  C      0.440288     -0.468980     -0.247370  
  C     -0.484108     -0.376766     -0.213782  
  C      0.472035     -0.402134     -0.231418  
  C      0.474479     -0.444158     -0.244026  
  C     -0.485461     -0.458806     -0.254452  
  C     -0.405089     -0.231542     -0.220874  
  C     -0.446024     -0.252149     -0.227156  
  C     -0.445867     -0.298512     -0.239897  
  C     -0.402929     -0.320679     -0.242752  
  C     -0.368969     -0.257126     -0.223700  
  C     -0.364930     -0.300002     -0.232924  
  C     -0.327657     -0.323204     -0.226566  
  C     -0.250843     -0.232400     -0.225334  
  C     -0.283064     -0.259211     -0.219195  
  C     -0.287286     -0.300938     -0.223276  
  C     -0.246656     -0.326781     -0.227518  
  C     -0.162249     -0.234078     -0.209042  
  C     -0.204876     -0.252149     -0.220695  
  C     -0.203805     -0.303684     -0.225628  
  C     -0.168167     -0.329367     -0.219791  
  C     -0.085411     -0.234628     -0.213210  
  C     -0.123645     -0.251514     -0.205667  
  C     -0.123067     -0.306339     -0.195950  
  C     -0.078495     -0.328147     -0.217427  
  C     -0.002186     -0.230824     -0.218871  
  C     -0.043443     -0.251469     -0.221842  
  C     -0.040687     -0.299631     -0.225541  
  C      0.000677     -0.322286     -0.224660  
  C      0.075879     -0.243442     -0.204926  
  C      0.038226     -0.232179     -0.214935  
  C      0.089707     -0.335093     -0.214994  
  C      0.145327     -0.237976     -0.185252  
  C      0.113847     -0.260606     -0.196716  
  C      0.120933     -0.304786     -0.206860  
  C      0.164737     -0.317047     -0.214249  
  C      0.241459     -0.298799     -0.228600  
  C      0.204547     -0.314075     -0.221697  
  C      0.278623     -0.235805     -0.238324  
  C      0.279832     -0.277826     -0.235248  
  C      0.315906     -0.300133     -0.233328  
  C      0.352311     -0.325830     -0.221889  
  C      0.437067     -0.229229     -0.203494  
  C      0.392934     -0.308479     -0.194704  
  C      0.437881     -0.328099     -0.206357  
  C     -0.485555     -0.232464     -0.222705  
  C      0.471874     -0.248883     -0.217533  
  C      0.473011     -0.300635     -0.218380  
  C     -0.487176     -0.323142     -0.229817  
  C     -0.411889     -0.093445     -0.202845  
  C     -0.449013     -0.113980     -0.202452  
  C     -0.452399     -0.157531     -0.208206  
  C     -0.405867     -0.188376     -0.212656  
  C     -0.374791     -0.113752     -0.206418  
  C     -0.366016     -0.161868     -0.210631  
  C     -0.326458     -0.176721     -0.215354  
  C     -0.228569     -0.112221     -0.193163  
  C     -0.263556     -0.131873     -0.206513  
  C     -0.286152     -0.165803     -0.223180  
  C     -0.260409     -0.195249     -0.246720  
  C     -0.155769     -0.083883     -0.172224  
  C     -0.192578     -0.098219     -0.180974  
  C     -0.411160     -0.376950     -0.126357  
  C     -0.448528     -0.398764     -0.135966  
  C     -0.457108     -0.441954     -0.119006  
  C     -0.426360     -0.466173     -0.108853  
  C     -0.328042     -0.374572     -0.112289  
  C     -0.372087     -0.392519     -0.120301  
  C     -0.288572     -0.484954     -0.100947  
  C     -0.243014     -0.373746     -0.105577  
  C     -0.287301     -0.399087     -0.105182  
  C     -0.286332     -0.444830     -0.102905  
  C     -0.163544     -0.377509     -0.106784  
  C     -0.202254     -0.399098     -0.104651  
  C     -0.206410     -0.440880     -0.101210  
  C     -0.081252     -0.373116     -0.102938  
  C     -0.125834     -0.400096     -0.101411  
  C     -0.116848     -0.446483     -0.101447  
  C     -0.079222     -0.465992     -0.099188  
  C      0.002797     -0.372549     -0.101765  
  C     -0.034592     -0.400185     -0.096785  
  C     -0.041992     -0.446384     -0.093707  
  C      0.072473     -0.364606     -0.153558  
  C      0.047275     -0.441931     -0.069019  
  C      0.081572     -0.433019     -0.088382  
  C      0.160659     -0.363161     -0.160799  
  C      0.116132     -0.393151     -0.153592  
  C      0.120798     -0.424986     -0.111160  
  C      0.166506     -0.434992     -0.098725  
  C      0.262614     -0.320665     -0.082505  
  C      0.205921     -0.440370     -0.090637  
  C      0.245089     -0.446844     -0.082271  
  C      0.313667     -0.381280     -0.096938  
  C      0.286932     -0.352354     -0.088146  
  C      0.341179     -0.474941     -0.114584  
  C      0.384894     -0.365088     -0.114219  
  C      0.354128     -0.396099     -0.107535  
  C      0.369350     -0.443357     -0.113597  
  C      0.416769     -0.449149     -0.115630  
  C     -0.484597     -0.375685     -0.158956  
  C      0.459291     -0.449430     -0.114627  
  C      0.499904     -0.450512     -0.114936  
  C     -0.415793     -0.242829     -0.102245  
  C     -0.456627     -0.260120     -0.104566  
  C     -0.457806     -0.303536     -0.118865  
  C     -0.414696     -0.329401     -0.121689  
  C     -0.329482     -0.234978     -0.101097  
  C     -0.373208     -0.255285     -0.104925  
  C     -0.368700     -0.302622     -0.112326  
  C     -0.326135     -0.326260     -0.110542  
  C     -0.244339     -0.232356     -0.104025  
  C     -0.286595     -0.256702     -0.102629  
  C     -0.285813     -0.302442     -0.107199  
  C     -0.242417     -0.323823     -0.106836  
  C     -0.161099     -0.230234     -0.095612  
  C     -0.200870     -0.257677     -0.102289  
  C     -0.200203     -0.299273     -0.108854  
  C     -0.159484     -0.325837     -0.121065  
  C     -0.073053     -0.223672     -0.106895  
  C     -0.121618     -0.316719     -0.142038  
  C     -0.083049     -0.327777     -0.123295  
  C      0.007008     -0.235565     -0.097051  
  C     -0.038324     -0.254900     -0.106644  
  C     -0.039836     -0.299967     -0.114363  
  C      0.003434     -0.325006     -0.108786  
  C      0.082351     -0.239421     -0.081314  
  C      0.045778     -0.260597     -0.094547  
  C      0.043179     -0.301670     -0.109920  
  C      0.075592     -0.318001     -0.131527  
  C      0.171964     -0.232519     -0.098960  
  C      0.119912     -0.301387     -0.135980  
  C      0.160352     -0.317838     -0.144115  
  C      0.254065     -0.238473     -0.114031  
  C      0.205513     -0.257872     -0.117832  
  C      0.194745     -0.295324     -0.133737  
  C      0.295384     -0.263006     -0.119048  
  C      0.335327     -0.277322     -0.116912  
  C      0.414662     -0.225361     -0.059948  
  C      0.398466     -0.251726     -0.085398  
  C      0.379033     -0.282270     -0.110341  
  C      0.408541     -0.323945     -0.119812  
  C     -0.490253     -0.237240     -0.092806  
  C      0.452468     -0.321807     -0.126513  
  C      0.498999     -0.330093     -0.136172  
  C     -0.404312     -0.103115     -0.083588  
  C     -0.449267     -0.125002     -0.076527  
  C     -0.462733     -0.166726     -0.090151  
  C     -0.360081     -0.124842     -0.093147  
  C     -0.324818     -0.144453     -0.096488  
  C     -0.246001     -0.096026     -0.038089  
  C     -0.264604     -0.128114     -0.053667  
  C     -0.281130     -0.153795     -0.085088  
  C     -0.245641     -0.180591     -0.102570  
  C     -0.157683     -0.093922     -0.053279  
  C     -0.198305     -0.158756     -0.105611  
  C     -0.156178     -0.180576     -0.096001  
  C     -0.075558     -0.098865     -0.046744  
  C     -0.118396     -0.119713     -0.062653  
  C     -0.117719     -0.161313     -0.085129  
  C     -0.078393     -0.180949     -0.091032  
  C      0.002991     -0.105775     -0.039511  
  C     -0.039011     -0.119650     -0.052641  
  C     -0.037439     -0.160463     -0.077288  
  C      0.006602     -0.184577     -0.080580  
  C      0.087823     -0.110927     -0.017744  
  C      0.047845     -0.124716     -0.039676  
  C      0.048813     -0.166788     -0.063915  
  C      0.090784     -0.194898     -0.065989  
  C      0.125806     -0.138241     -0.027135  
  C      0.129763     -0.176136     -0.056397  
  C      0.167679     -0.192381     -0.072565  
  C      0.260099     -0.116217     -0.002936  
  C      0.224294     -0.141370     -0.027412  
  C      0.216935     -0.171363     -0.063217  
  C      0.252716     -0.192168     -0.091093  
  C      0.349102     -0.117689     -0.000081  
  C      0.305279     -0.136690      0.005395  
  C      0.409266     -0.202916      0.032461  
  C      0.385564     -0.142675     -0.003881  
  C      0.409676     -0.179663     -0.002125  
  C      0.431510     -0.194350     -0.037085  
  C     -0.487057     -0.101361     -0.050070  
  C      0.478669     -0.132672     -0.037219  
  C      0.467930     -0.175763     -0.048383  
  C     -0.496707     -0.198212     -0.078411  
  C     -0.409380      0.032227     -0.036948  
  C     -0.449855      0.014169     -0.039532  
  C     -0.452247     -0.033416     -0.054073  
  C     -0.408024     -0.052429     -0.074015  
  C     -0.326613      0.033463     -0.024635  
  C     -0.364299      0.016652     -0.040705  
  C     -0.360944     -0.028260     -0.062997  
  C     -0.318258     -0.047948     -0.066928  
  C     -0.246608      0.033964     -0.013469  
  C     -0.286402      0.014669     -0.026429  
  C     -0.280359     -0.029464     -0.043628  
  C     -0.241080     -0.054400     -0.033949  
  C     -0.163932      0.032937      0.008591  
  C     -0.202988      0.014599     -0.007914  
  C     -0.200607     -0.034250     -0.024655  
  C     -0.161595     -0.054593     -0.030438  
  C     -0.080280      0.024410      0.023967  
  C     -0.122305      0.004760      0.007445  
  C     -0.123921     -0.036433     -0.015826  
  C     -0.076900     -0.062413     -0.022357  
  C      0.000189      0.021783      0.032363  
  C     -0.039583      0.000836      0.021408  
  C     -0.041637     -0.040231      0.001539  
  C      0.087357      0.020539      0.033883  
  C      0.042467     -0.005421      0.028306  
  C      0.049142     -0.050650      0.014528  
  C      0.087398     -0.075344      0.007896  
  C      0.171357      0.017459      0.020466  
  C      0.129625     -0.005599      0.026991  
  C      0.127741     -0.057057      0.020920  
  C      0.175702     -0.077859      0.020641  
  C      0.258321      0.022039      0.013191  
  C      0.214076     -0.005541      0.015614  
  C      0.214541     -0.055193      0.011596  
  C      0.256805     -0.073061      0.005231  
  C      0.338212      0.021556      0.001380  
  C      0.298116      0.003327      0.007167  
  C      0.298487     -0.045138      0.005539  
  C      0.345830     -0.069971     -0.002648  
  C      0.420956      0.031114     -0.018452  
  C      0.382332      0.005087     -0.005605  
  C      0.386811     -0.044653     -0.006166  
  C      0.430745     -0.061483     -0.016817  
  C     -0.491057      0.035876     -0.030472  
  C      0.467547      0.008521     -0.025751  
  C      0.470826     -0.041481     -0.028470  
  C     -0.490319     -0.059757     -0.044318  
  C     -0.401217      0.184271     -0.011712  
  C     -0.458351      0.107563     -0.032825  
  C     -0.330075      0.166660      0.013553  
  C     -0.372917      0.152006     -0.001094  
  C     -0.373478      0.104121     -0.005422  
  C     -0.329695      0.072664     -0.001712  
  C     -0.251894      0.172695      0.019467  
  C     -0.290915      0.148360      0.023228  
  C     -0.291103      0.099652      0.024560  
  C     -0.163694      0.179404      0.024151  
  C     -0.210926      0.149328      0.024253  
  C     -0.202091      0.100409      0.027963  
  C     -0.164093      0.074414      0.023240  
  C     -0.081724      0.167166      0.044166  
  C     -0.122027      0.146876      0.035104  
  C     -0.123231      0.097145      0.031265  
  C     -0.079415      0.072281      0.033245  
  C      0.004147      0.166115      0.035501  
  C     -0.034583      0.137261      0.039946  
  C     -0.036201      0.093383      0.036549  
  C      0.002106      0.067430      0.037052  
  C      0.097273      0.167267      0.013260  
  C      0.043183      0.084283      0.037512  
  C      0.085716      0.066367      0.036005  
  C      0.117336      0.133930      0.023742  
  C      0.123525      0.089163      0.031920  
  C      0.170952      0.066058      0.019747  
  C      0.244300      0.157075     -0.018839  
  C      0.211430      0.134719     -0.004434  
  C      0.207979      0.088599      0.010472  
  C      0.254937      0.065957      0.013594  
  C      0.325042      0.160841     -0.031077  
  C      0.286533      0.143528     -0.017568  
  C      0.291461      0.096772      0.004355  
  C      0.411917      0.166125     -0.052137  
  C      0.370821      0.145764     -0.035800  
  C      0.380639      0.099292     -0.020834  
  C      0.419309      0.074796     -0.023399  
  C      0.491800      0.170100     -0.061991  
  C      0.459284      0.148734     -0.050982  
  C      0.464636      0.101624     -0.035339  
  C     -0.493300      0.083516     -0.032427  
  C     -0.492363      0.258337     -0.043742  
  C     -0.455592      0.245859     -0.032347  
  C     -0.410894      0.230572     -0.020074  
  C     -0.308095      0.310249     -0.007151  
  C     -0.342182      0.288511     -0.009294  
  C     -0.373983      0.263844     -0.013626  
  C     -0.210601      0.280734     -0.023200  
  C     -0.237641      0.252216     -0.007727  
  C     -0.250555      0.214689      0.006370  
  C     -0.130617      0.295823     -0.033111  
  C     -0.171173      0.293648     -0.032039  
  C     -0.159162      0.220914      0.018610  
  C     -0.046202      0.273785     -0.017975  
  C     -0.090941      0.288943     -0.028183  
  C     -0.075685      0.214599      0.040703  
  C     -0.002943      0.282589     -0.037054  
  C     -0.040209      0.240373      0.023075  
  C      0.008269      0.212186      0.021150  
  C      0.075442      0.275924     -0.059485  
  C      0.036688      0.267219     -0.036139  
  C      0.043074      0.229244     -0.007250  
  C      0.090128      0.202521     -0.008426  
  C      0.142634      0.269578     -0.092958  
  C      0.115301      0.256826     -0.063665  
  C      0.125056      0.220174     -0.035179  
  C      0.164032      0.203364     -0.033921  
  C     -0.416631     -0.339824      0.318142  
  C     -0.462087     -0.352357      0.329963  
  C     -0.463254     -0.398398      0.353596  
  C     -0.420252     -0.421468      0.359073  
  C     -0.335381     -0.347161      0.296725  
  C     -0.378800     -0.362972      0.316359  
  C     -0.378164     -0.409487      0.334450  
  C     -0.340205     -0.436206      0.323409  
  C     -0.251716     -0.350030      0.300640  
  C     -0.294353     -0.370431      0.307514  
  C     -0.294873     -0.421717      0.315186  
  C     -0.252288     -0.439200      0.319499  
  C     -0.170515     -0.345706      0.298983  
  C     -0.209073     -0.371793      0.309196  
  C     -0.207769     -0.419970      0.318835  
  C     -0.166673     -0.436758      0.320558  
  C     -0.081414     -0.333888      0.307505  
  C     -0.123639     -0.363954      0.312721  
  C     -0.120032     -0.417187      0.318663  
  C     -0.074687     -0.434522      0.324756  
  C     -0.041142     -0.357077      0.314590  
  C     -0.032610     -0.408190      0.316820  
  C      0.010473     -0.423698      0.300020  
  C      0.098166     -0.361932      0.244727  
  C      0.069800     -0.397772      0.258932  
  C      0.047947     -0.432592      0.274853  
  C      0.060859     -0.472580      0.271302  
  C      0.181820     -0.380520      0.233025  
  C      0.142458     -0.370686      0.234965  
  C      0.091790     -0.220824      0.354698  
  C      0.260696     -0.362628      0.245144  
  C      0.223886     -0.382706      0.238958  
  C      0.260765     -0.449947      0.291281  
  C      0.336772     -0.347491      0.277378  
  C      0.293041     -0.377648      0.267654  
  C      0.289605     -0.422211      0.296966  
  C      0.324720     -0.424267      0.332205  
  C      0.408593     -0.334948      0.315871  
  C      0.369039     -0.358282      0.310132  
  C      0.366647     -0.402559      0.336563  
  C      0.407153     -0.413487      0.364311  
  C      0.495793     -0.326880      0.321495  
  C      0.450506     -0.346162      0.331932  
  C      0.453539     -0.395759      0.356707  
  C      0.496197     -0.412563      0.363030  
  C     -0.421811     -0.217677      0.228374  
  C     -0.456407     -0.240365      0.244082  
  C     -0.461864     -0.272427      0.278443  
  C     -0.331185     -0.218361      0.231553  
  C     -0.372962     -0.293265      0.257570  
  C     -0.337268     -0.308181      0.269515  
  C     -0.251170     -0.230497      0.225062  
  C     -0.294242     -0.248326      0.237496  
  C     -0.295653     -0.291426      0.258418  
  C     -0.251994     -0.311896      0.272429  
  C     -0.173854     -0.237115      0.211986  
  C     -0.207620     -0.252050      0.228355  
  C     -0.208499     -0.288756      0.255533  
  C     -0.171287     -0.301419      0.275664  
  C     -0.084478     -0.242648      0.195978  
  C     -0.131198     -0.277205      0.279881  
  C     -0.093873     -0.292120      0.293378  
  C     -0.009409     -0.241990      0.194739  
  C     -0.045810     -0.259317      0.190305  
  C     -0.008864     -0.307031      0.260027  
  C      0.093018     -0.195078      0.194132  
  C      0.030220     -0.313331      0.251105  
  C      0.074745     -0.315945      0.239339  
  C      0.170961     -0.232375      0.204244  
  C      0.117956     -0.241909      0.211171  
  C      0.099958     -0.280082      0.223740  
  C      0.255936     -0.225100      0.208348  
  C      0.212974     -0.254329      0.213395  
  C      0.223940     -0.296910      0.226422  
  C      0.261671     -0.318294      0.235531  
  C      0.334514     -0.217776      0.205619  
  C      0.299567     -0.244512      0.219121  
  C      0.301013     -0.290892      0.237056  
  C      0.341457     -0.305860      0.253794  
  C      0.424288     -0.213962      0.219510  
  C      0.375996     -0.284940      0.250402  
  C      0.500132     -0.226313      0.226435  
  C      0.454320     -0.237313      0.237870  
  C      0.456443     -0.267106      0.279611  
  C      0.497359     -0.291487      0.295659  
  C     -0.413005     -0.087237      0.194764  
  C     -0.454953     -0.103935      0.186313  
  C     -0.454767     -0.151186      0.188784  
  C     -0.413532     -0.178318      0.210717  
  C     -0.377710     -0.107187      0.207051  
  C     -0.370603     -0.152114      0.213686  
  C     -0.332556     -0.173800      0.220686  
  C     -0.248820     -0.085194      0.222212  
  C     -0.287079     -0.110301      0.216435  
  C     -0.294552     -0.155415      0.216103  
  C     -0.250909     -0.183862      0.212875  
  C     -0.164314     -0.094496      0.217070  
  C     -0.203791     -0.114789      0.217033  
  C     -0.212250     -0.159598      0.205679  
  C     -0.085893     -0.095435      0.200369  
  C     -0.125866     -0.121068      0.209198  
  C     -0.121599     -0.162966      0.207834  
  C     -0.089527     -0.190665      0.208166  
  C      0.002442     -0.096640      0.188107  
  C     -0.037022     -0.171896      0.214494  
  C      0.002611     -0.200368      0.202874  
  C      0.084154     -0.101788      0.167335  
  C      0.044989     -0.126150      0.182354  
  C      0.048097     -0.176673      0.192915  
  C      0.162796     -0.095898      0.150194  
  C      0.128212     -0.122690      0.164887  
  C      0.132039     -0.164516      0.178061  
  C      0.174132     -0.183221      0.183140  
  C      0.258167     -0.091800      0.139085  
  C      0.215493     -0.167708      0.178226  
  C      0.256277     -0.183018      0.186928  
  C      0.284443     -0.122026      0.152515  
  C      0.292794     -0.161468      0.174131  
  C      0.333129     -0.176538      0.184962  
  C      0.420172     -0.077065      0.174706  
  C      0.378148     -0.110719      0.170748  
  C      0.372818     -0.153114      0.181340  
  C      0.419951     -0.178827      0.196946  
  C     -0.495594     -0.082150      0.179425  
  C      0.466586     -0.104545      0.178954  
  C      0.458404     -0.150384      0.189321  
  C     -0.401406      0.060468      0.187901  
  C     -0.445305      0.036299      0.183736  
  C     -0.453933     -0.010005      0.175651  
  C     -0.321006      0.055982      0.213884  
  C     -0.364462      0.034439      0.200992  
  C     -0.364988     -0.012645      0.204332  
  C     -0.330998     -0.034660      0.216789  
  C     -0.238762      0.054609      0.230936  
  C     -0.280483      0.036069      0.223890  
  C     -0.280699     -0.015711      0.223294  
  C     -0.243502     -0.039906      0.223070  
  C     -0.154876      0.048290      0.219421  
  C     -0.196836      0.026487      0.228273  
  C     -0.202291     -0.023354      0.224788  
  C     -0.161836     -0.050651      0.220550  
  C     -0.077328      0.043286      0.192540  
  C     -0.119796      0.022907      0.210204  
  C     -0.119919     -0.024571      0.211552  
  C     -0.080125     -0.049853      0.200515  
  C     -0.000780      0.040172      0.171915  
  C     -0.035647      0.019598      0.184480  
  C     -0.036981     -0.030246      0.190348  
  C      0.000578     -0.052853      0.183684  
  C      0.081912      0.040423      0.151437  
  C      0.038675      0.014870      0.166044  
  C      0.039021     -0.032035      0.169461  
  C      0.079919     -0.055693      0.158968  
  C      0.161481      0.040227      0.142588  
  C      0.123315      0.017923      0.146103  
  C      0.122887     -0.029626      0.144603  
  C      0.165435     -0.053132      0.140263  
  C      0.244553      0.042145      0.134861  
  C      0.202505      0.020335      0.134628  
  C      0.205508     -0.027059      0.131629  
  C      0.251906     -0.050918      0.131027  
  C      0.319860      0.040108      0.170604  
  C      0.287732      0.024497      0.141897  
  C      0.293207     -0.021377      0.130579  
  C      0.331065     -0.040008      0.127675  
  C      0.345324      0.014944      0.192732  
  C      0.421063     -0.031445      0.180172  
  C     -0.490229      0.065485      0.191461  
  C      0.469581      0.040006      0.186168  
  C      0.461513     -0.008844      0.180579  
  C     -0.494936     -0.036381      0.175307  
  C     -0.457104      0.187226      0.195889  
  C     -0.441669      0.139637      0.195211  
  C     -0.393991      0.113308      0.182083  
  C     -0.319001      0.192259      0.225644  
  C     -0.355506      0.129306      0.173967  
  C     -0.293069      0.161557      0.229081  
  C     -0.268968      0.129282      0.231828  
  C     -0.233356      0.100077      0.234774  
  C     -0.154792      0.187329      0.199403  
  C     -0.184854      0.162121      0.227814  
  C     -0.190379      0.116865      0.230319  
  C     -0.155333      0.092338      0.219128  
  C     -0.080836      0.183705      0.164985  
  C     -0.115854      0.161833      0.185310  
  C     -0.113941      0.114234      0.196456  
  C     -0.077220      0.089242      0.185360  
  C      0.001256      0.180539      0.141342  
  C     -0.041397      0.160382      0.158628  
  C     -0.040555      0.111559      0.168428  
  C      0.001374      0.084826      0.161374  
  C      0.034409      0.151292      0.138753  
  C      0.041160      0.108667      0.147600  
  C      0.079343      0.090186      0.150028  
  C      0.163880      0.176240      0.162788  
  C      0.124466      0.161626      0.157174  
  C      0.116412      0.110917      0.150389  
  C      0.161442      0.084009      0.147053  
  C      0.200677      0.155060      0.162214  
  C      0.203763      0.113729      0.154784  
  C      0.321533      0.179397      0.180602  
  C      0.285915      0.157726      0.172704  
  C      0.282653      0.115938      0.168711  
  C      0.321307      0.085411      0.177904  
  C      0.409639      0.175579      0.192591  
  C      0.369375      0.156883      0.191819  
  C      0.365536      0.107141      0.195190  
  C      0.393302      0.085908      0.215237  
  C      0.491290      0.190748      0.193419  
  C      0.451063      0.185075      0.194228  
  C     -0.480154      0.107525      0.200022  
  C     -0.412033      0.325684      0.189195  
  C     -0.451587      0.310944      0.193977  
  C     -0.461534      0.270666      0.200857  
  C     -0.433110      0.231007      0.200536  
  C     -0.328874      0.311220      0.195133  
  C     -0.369002      0.297206      0.196386  
  C     -0.382834      0.244050      0.206002  
  C     -0.348416      0.218467      0.216646  
  C     -0.247349      0.318524      0.193079  
  C     -0.289746      0.321992      0.194261  
  C     -0.234004      0.230250      0.217484  
  C     -0.161485      0.322615      0.181449  
  C     -0.204000      0.302220      0.191735  
  C     -0.200566      0.251939      0.203396  
  C     -0.159118      0.230508      0.192042  
  C     -0.081035      0.322501      0.160487  
  C     -0.121890      0.304971      0.172304  
  C     -0.121837      0.255256      0.176621  
  C     -0.080234      0.227581      0.161789  
  C     -0.045031      0.303027      0.149592  
  C     -0.036768      0.255885      0.146461  
  C      0.108298      0.286701      0.193241  
  C      0.075614      0.269770      0.172473  
  C      0.042460      0.251723      0.153458  
  C      0.004469      0.232288      0.141405  
  C      0.169563      0.323369      0.230472  
  C      0.140270      0.303310      0.211357  
  C     -0.421284     -0.374763      0.436770  
  C     -0.457494     -0.400211      0.438787  
  C     -0.459643     -0.444005      0.436310  
  C     -0.419734     -0.467117      0.439367  
  C     -0.330825     -0.375017      0.429447  
  C     -0.380017     -0.453190      0.433420  
  C     -0.339491     -0.470602      0.437791  
  C     -0.254348     -0.384523      0.424574  
  C     -0.295209     -0.401374      0.429192  
  C     -0.297826     -0.446707      0.434623  
  C     -0.255677     -0.474206      0.437318  
  C     -0.172397     -0.376524      0.424542  
  C     -0.212548     -0.399290      0.427022  
  C     -0.210051     -0.448728      0.433375  
  C     -0.168110     -0.472762      0.437360  
  C     -0.086808     -0.371744      0.431292  
  C     -0.130804     -0.399660      0.430356  
  C     -0.127236     -0.449271      0.433914  
  C     -0.085493     -0.464286      0.436527  
  C     -0.004489     -0.374341      0.435653  
  C     -0.043009     -0.396371      0.435427  
  C     -0.046484     -0.447827      0.440075  
  C     -0.007189     -0.473305      0.457935  
  C      0.082441     -0.372653      0.435603  
  C      0.034933     -0.397036      0.444042  
  C      0.038788     -0.448412      0.459429  
  C      0.083225     -0.464623      0.466812  
  C      0.123684     -0.403673      0.445150  
  C      0.124178     -0.449101      0.459326  
  C      0.164610     -0.471581      0.458264  
  C      0.255080     -0.378543      0.434865  
  C      0.216265     -0.405392      0.442729  
  C      0.208915     -0.446644      0.446942  
  C      0.245695     -0.474172      0.451528  
  C      0.290993     -0.398119      0.423702  
  C      0.338361     -0.472987      0.447153  
  C      0.416494     -0.375581      0.445530  
  C      0.376640     -0.402268      0.448756  
  C      0.372645     -0.445619      0.442080  
  C      0.414594     -0.467521      0.437501  
  C     -0.499696     -0.376928      0.442658  
  C      0.457039     -0.399306      0.442592  
  C      0.454828     -0.444883      0.437151  
  C      0.495604     -0.469966      0.433895  
  C     -0.414203     -0.236450      0.422666  
  C     -0.456892     -0.256120      0.432056  
  C     -0.456249     -0.305518      0.440291  
  C     -0.415871     -0.331101      0.438998  
  C     -0.377437     -0.264259      0.419485  
  C     -0.378755     -0.311435      0.432858  
  C     -0.338801     -0.333209      0.440757  
  C     -0.259621     -0.237160      0.428922  
  C     -0.283878     -0.276761      0.455880  
  C     -0.305945     -0.310504      0.454795  
  C     -0.171637     -0.233763      0.404125  
  C     -0.214953     -0.254248      0.408459  
  C     -0.211736     -0.305899      0.407348  
  C     -0.171883     -0.331305      0.417778  
  C     -0.127416     -0.253847      0.405103  
  C     -0.124950     -0.304361      0.417458  
  C     -0.085173     -0.326257      0.425513  
  C     -0.001698     -0.233627      0.419292  
  C     -0.043852     -0.256746      0.413497  
  C     -0.044946     -0.303417      0.423273  
  C     -0.000998     -0.331062      0.428285  
  C      0.086044     -0.227319      0.405228  
  C      0.040601     -0.258436      0.415172  
  C      0.044142     -0.305459      0.422785  
  C      0.082324     -0.327248      0.428776  
  C      0.166016     -0.235717      0.443966  
  C      0.129245     -0.254416      0.427853  
  C      0.122807     -0.305925      0.428481  
  C      0.165601     -0.328231      0.434775  
  C      0.203788     -0.258513      0.448189  
  C      0.209068     -0.307921      0.442819  
  C      0.253056     -0.329094      0.440518  
  C      0.329550     -0.232812      0.459584  
  C      0.290937     -0.261538      0.451367  
  C      0.288894     -0.306551      0.443033  
  C      0.329301     -0.325046      0.443428  
  C      0.417000     -0.230790      0.455676  
  C      0.374692     -0.254743      0.456944  
  C      0.376251     -0.307897      0.449513  
  C      0.417006     -0.329787      0.449098  
  C     -0.499553     -0.230600      0.440974  
  C      0.457874     -0.255537      0.449543  
  C      0.457551     -0.305652      0.450056  
  C     -0.500221     -0.329445      0.446939  
  C     -0.410304     -0.094248      0.418629  
  C     -0.453314     -0.110813      0.431189  
  C     -0.456063     -0.158017      0.433531  
  C     -0.411833     -0.184438      0.425406  
  C     -0.332608     -0.092782      0.399030  
  C     -0.366479     -0.112126      0.409747  
  C     -0.365853     -0.161644      0.416252  
  C     -0.326167     -0.185245      0.418138  
  C     -0.244718     -0.087481      0.409798  
  C     -0.290352     -0.204149      0.419777  
  C     -0.170400     -0.092215      0.418387  
  C     -0.207964     -0.115117      0.413206  
  C     -0.211135     -0.157078      0.414581  
  C     -0.076426     -0.090715      0.424180  
  C     -0.077864     -0.199568      0.368644  
  C     -0.083050     -0.232657      0.393754  
  C     -0.003772     -0.093421      0.449493  
  C     -0.039389     -0.109288      0.433159  
  C      0.004224     -0.189618      0.430529  
  C      0.083140     -0.088708      0.459241  
  C      0.037039     -0.163822      0.437839  
  C      0.081373     -0.179644      0.433085  
  C      0.165593     -0.093383      0.474397  
  C      0.120554     -0.115900      0.461083  
  C      0.119714     -0.162708      0.451369  
  C      0.165399     -0.190937      0.457961  
  C      0.201003     -0.122843      0.477267  
  C      0.207238     -0.164418      0.474161  
  C      0.248663     -0.180296      0.476894  
  C      0.331291     -0.089014      0.477441  
  C      0.295369     -0.119163      0.484269  
  C      0.289135     -0.162090      0.476706  
  C      0.329373     -0.187614      0.467349  
  C      0.417476     -0.086077      0.454867  
  C      0.376910     -0.112778      0.467409  
  C      0.376414     -0.160513      0.466969  
  C      0.418516     -0.183694      0.458186  
  C     -0.491852     -0.081212      0.450185  
  C      0.460644     -0.106173      0.452239  
  C      0.461132     -0.157987      0.451378  
  C     -0.499388     -0.182238      0.441353  
  C     -0.417976      0.039918      0.456076  
  C     -0.462983      0.017168      0.459869  
  C     -0.473825     -0.033541      0.460445  
  C     -0.335899      0.047099      0.432606  
  C     -0.375774      0.018965      0.433675  
  C     -0.375343     -0.017029      0.416035  
  C     -0.252363      0.054791      0.432518  
  C     -0.291674      0.029663      0.423551  
  C     -0.285665     -0.016574      0.412453  
  C     -0.250809     -0.043922      0.412447  
  C     -0.165546      0.056436      0.439653  
  C     -0.204581      0.029805      0.427003  
  C     -0.206741     -0.019466      0.417877  
  C     -0.163703     -0.045379      0.422204  
  C     -0.084282      0.051591      0.460065  
  C     -0.123995      0.028881      0.445384  
  C     -0.126590     -0.022988      0.431619  
  C     -0.084456     -0.046979      0.434363  
  C      0.000536      0.048511      0.467640  
  C     -0.043522      0.029733      0.461019  
  C     -0.043641     -0.019167      0.450997  
  C      0.002719     -0.046230      0.457248  
  C      0.034335      0.023362      0.472054  
  C      0.042434     -0.019750      0.467776  
  C      0.080905     -0.045003      0.472217  
  C      0.122390     -0.026767      0.485828  
  C      0.165095     -0.046601      0.479469  
  C      0.242286      0.054196      0.462590  
  C      0.205060      0.024418      0.466363  
  C      0.201974     -0.022465      0.474447  
  C      0.244865     -0.043049      0.473512  
  C      0.328232      0.057078      0.456661  
  C      0.286768      0.034364      0.463978  
  C      0.287027     -0.020842      0.470708  
  C      0.328072     -0.043642      0.470846  
  C      0.362674      0.026924      0.452813  
  C      0.367876     -0.020786      0.456272  
  C      0.409988     -0.040427      0.445053  
  C      0.498645      0.045351      0.452067  
  C      0.464086      0.019223      0.436128  
  C      0.441578     -0.014244      0.434566  
  C     -0.415624      0.190566      0.468607  
  C     -0.464015      0.166463      0.465519  
  C     -0.465640      0.114767      0.463118  
  C     -0.417703      0.089636      0.460158  
  C     -0.380605      0.163780      0.463907  
  C     -0.378715      0.121685      0.462693  
  C     -0.256651      0.197375      0.464256  
  C     -0.296439      0.166280      0.460138  
  C     -0.295161      0.124649      0.453775  
  C     -0.254269      0.097143      0.444114  
  C     -0.215755      0.172417      0.461712  
  C     -0.208075      0.124389      0.450774  
  C     -0.168110      0.101186      0.449426  
  C     -0.085683      0.200286      0.471106  
  C     -0.123642      0.173141      0.461467  
  C     -0.129990      0.125097      0.459689  
  C     -0.085762      0.098490      0.467701  
  C     -0.002273      0.198659      0.470638  
  C     -0.040887      0.176806      0.470755  
  C     -0.044165      0.129118      0.474490  
  C      0.073846      0.204205      0.463184  
  C      0.037473      0.175776      0.464589  
  C      0.045644      0.132534      0.462029  
  C      0.074762      0.104678      0.458866  
  C      0.165283      0.196503      0.462317  
  C      0.116399      0.096247      0.456727  
  C      0.156091      0.104804      0.455890  
  C      0.243698      0.189562      0.460280  
  C      0.202679      0.168580      0.458571  
  C      0.198566      0.123037      0.456201  
  C      0.234586      0.097316      0.457879  
  C      0.328858      0.190124      0.458461  
  C      0.288157      0.172341      0.457489  
  C      0.337799      0.098113      0.454979  
  C      0.407882      0.196079      0.461944  
  C      0.367812      0.168927      0.460458  
  C      0.371245      0.127095      0.456782  
  C      0.413996      0.109330      0.454105  
  C      0.499368      0.196157      0.465714  
  C      0.454411      0.105582      0.455661  
  C      0.495458      0.088902      0.457724  
  C     -0.424712      0.338286      0.465481  
  C     -0.462364      0.317350      0.475996  
  C     -0.462324      0.267953      0.482418  
  C     -0.421973      0.240824      0.479305  
  C     -0.334924      0.340566      0.462858  
  C     -0.380508      0.319280      0.464569  
  C     -0.334691      0.241753      0.458189  
  C     -0.298291      0.308716      0.465589  
  C     -0.297279      0.261299      0.462919  
  C     -0.257588      0.241405      0.462749  
  C     -0.171536      0.339505      0.459892  
  C     -0.208123      0.311774      0.457610  
  C     -0.216106      0.264266      0.462101  
  C     -0.171998      0.241922      0.471082  
  C     -0.088840      0.349062      0.477503  
  C     -0.129452      0.319984      0.472948  
  C     -0.126918      0.266749      0.479331  
  C     -0.087481      0.246674      0.482969  
  C      0.001219      0.341215      0.481130  
  C     -0.041471      0.324205      0.485818  
  C     -0.044754      0.272558      0.488251  
  C     -0.001971      0.247503      0.480354  
  C      0.036744      0.318734      0.475709  
  C      0.043526      0.273249      0.475054  
  C      0.082334      0.248919      0.468320  
  C      0.163530      0.336630      0.481493  
  C      0.129156      0.315380      0.478494  
  C      0.120814      0.270757      0.471358  
  C      0.160764      0.245668      0.469116  
  C      0.244353      0.340471      0.485477  
  C      0.207704      0.316273      0.479639  
  C      0.207493      0.269082      0.469884  
  C      0.244109      0.245087      0.463019  
  C      0.333641      0.335576      0.475745  
  C      0.287203      0.261620      0.461548  
  C      0.329201      0.242031      0.460678  
  C      0.409255      0.336291      0.460593  
  C      0.368961      0.314421      0.465750  
  C      0.370667      0.266708      0.462667  
  C      0.411713      0.241604      0.463123  
  C      0.495675      0.340556      0.471835  
  C      0.451283      0.313476      0.467769  
  C      0.452444      0.263460      0.466014  
  C      0.492570      0.241151      0.471252  
  C     -0.424817      0.486794      0.446874  
  C     -0.461790      0.456316      0.448757  
  C     -0.462658      0.410970      0.456061  
  C     -0.424943      0.387691      0.458474  
  C     -0.333404      0.482756      0.444076  
  C     -0.379287      0.407562      0.451751  
  C     -0.335511      0.388078      0.453672  
  C     -0.254721      0.478385      0.440321  
  C     -0.296520      0.455263      0.443984  
  C     -0.298482      0.408192      0.448491  
  C     -0.257193      0.387652      0.444245  
  C     -0.170755      0.482067      0.439084  
  C     -0.212112      0.457561      0.439449  
  C     -0.212560      0.404013      0.443221  
  C     -0.172354      0.382534      0.450624  
  C     -0.133597      0.454542      0.437084  
  C     -0.132147      0.408338      0.449951  
  C     -0.094384      0.394225      0.472232  
  C     -0.013021      0.483659      0.469903  
  C     -0.053072      0.464344      0.482363  
  C     -0.069163      0.425495      0.485309  
  C      0.019868      0.454125      0.466987  
  C      0.041007      0.419860      0.466763  
  C      0.078200      0.399645      0.464808  
  C      0.170374      0.476353      0.467298  
  C      0.141716      0.443090      0.462329  
  C      0.116930      0.411231      0.461332  
  C      0.252634      0.483380      0.464855  
  C      0.214605      0.461289      0.479019  
  C      0.219505      0.417346      0.497628  
  C      0.255588      0.387191      0.484919  
  C      0.326097      0.487650      0.450914  
  C      0.293452      0.462128      0.459620  
  C      0.291440      0.412686      0.465394  
  C      0.417506      0.484813      0.439040  
  C      0.372461      0.407270      0.439709  
  C      0.407418      0.387941      0.446345  
  C      0.495923      0.477309      0.439866  
  C      0.451542      0.456656      0.441865  
  C      0.451663      0.411615      0.449907  
  C      0.496484      0.386988      0.460023  
